
     RDKit          3D

191213  0  0  0  0  0  0  0  0999 V2000
   -3.7950    4.0950    1.6060 C   0  0  0  0  0  0  0  0  0  0  0  0
   -4.9250    4.1310    0.7430 C   0  0  0  0  0  0  0  0  0  0  0  0
   -2.4090    0.8540   -1.4130 C   0  0  0  0  0  0  0  0  0  0  0  0
   -2.7460    3.1920    1.3540 C   0  0  0  0  0  0  0  0  0  0  0  0
   -4.9830    3.2800   -0.3760 C   0  0  0  0  0  0  0  0  0  0  0  0
   -1.8890    1.3590   -0.2810 C   0  0  0  0  0  0  0  0  0  0  0  0
   -3.7470    1.4550   -1.7570 C   0  0  0  0  0  0  0  0  0  0  0  0
   -2.8220    2.3570    0.2350 C   0  0  0  0  0  0  0  0  0  0  0  0
   -3.9290    2.4150   -0.6190 C   0  0  0  0  0  0  0  0  0  0  0  0
   -3.7060    4.9760    2.7140 C   0  0  0  0  0  0  0  0  0  0  0  0
   -4.7600    5.8880    2.9610 C   0  0  0  0  0  0  0  0  0  0  0  0
   -5.8790    5.8960    2.1150 C   0  0  0  0  0  0  0  0  0  0  0  0
   -5.9590    5.0310    1.0210 C   0  0  0  0  0  0  0  0  0  0  0  0
   -2.5600    4.9350    3.5430 C   0  0  0  0  0  0  0  0  0  0  0  0
   -2.4910    5.8560    4.5990 C   0  0  0  0  0  0  0  0  0  0  0  0
   -3.5260    6.7660    4.8480 C   0  0  0  0  0  0  0  0  0  0  0  0
   -4.6580    6.7730    4.0390 C   0  0  0  0  0  0  0  0  0  0  0  0
   -1.5910    4.0240    3.3210 N   0  0  0  0  0  0  0  0  0  0  0  0
   -1.6860    3.2040    2.2470 C   0  0  0  0  0  0  0  0  0  0  0  0
   -1.2770    5.9060    5.4610 C   0  0  0  0  0  0  0  0  0  0  0  0
   -0.1520    5.9540    4.9620 O   0  0  0  0  0  0  0  0  0  0  0  0
   -1.4430    5.9110    6.9690 C   0  0  0  0  0  0  0  0  0  0  0  0
   -2.0640    4.6300    7.5290 C   0  0  0  0  0  0  0  0  0  0  0  0
   -1.1120   -0.4390    8.0930 C   0  0  0  0  0  0  0  0  0  0  0  0
   -0.4720   -1.6670    7.7290 C   0  0  0  0  0  0  0  0  0  0  0  0
    2.1330   -2.9970    2.0060 C   0  0  0  0  0  0  0  0  0  0  0  0
   -0.9570    0.7420    7.2780 C   0  0  0  0  0  0  0  0  0  0  0  0
    2.4650   -1.8450    1.4050 C   0  0  0  0  0  0  0  0  0  0  0  0
    0.3040   -1.7000    6.5470 C   0  0  0  0  0  0  0  0  0  0  0  0
    1.5550   -2.7790    3.3880 C   0  0  0  0  0  0  0  0  0  0  0  0
    2.2590    0.5820    2.0200 C   0  0  0  0  0  0  0  0  0  0  0  0
    1.7830    1.4990    2.9870 C   0  0  0  0  0  0  0  0  0  0  0  0
    0.3480    1.7190    5.1780 C   0  0  0  0  0  0  0  0  0  0  0  0
    2.1220   -0.7690    2.3090 C   0  0  0  0  0  0  0  0  0  0  0  0
   -0.1160    0.6460    6.1500 C   0  0  0  0  0  0  0  0  0  0  0  0
    1.1730    0.9670    4.1510 C   0  0  0  0  0  0  0  0  0  0  0  0
    1.5840   -1.2860    3.5000 C   0  0  0  0  0  0  0  0  0  0  0  0
    0.4470   -0.5840    5.7380 C   0  0  0  0  0  0  0  0  0  0  0  0
    1.1230   -0.4120    4.4560 C   0  0  0  0  0  0  0  0  0  0  0  0
   -1.8970   -0.4320    9.2780 C   0  0  0  0  0  0  0  0  0  0  0  0
   -2.0310   -1.5700   10.0900 C   0  0  0  0  0  0  0  0  0  0  0  0
   -1.3970   -2.7470    9.7490 C   0  0  0  0  0  0  0  0  0  0  0  0
   -0.6470   -2.7980    8.5770 C   0  0  0  0  0  0  0  0  0  0  0  0
    2.7790    1.0010    0.7730 C   0  0  0  0  0  0  0  0  0  0  0  0
    2.8020    2.3810    0.5190 C   0  0  0  0  0  0  0  0  0  0  0  0
    2.4750    3.3070    1.5180 C   0  0  0  0  0  0  0  0  0  0  0  0
    1.9210    2.8740    2.7270 C   0  0  0  0  0  0  0  0  0  0  0  0
    3.1390   -0.0270   -0.3110 C   0  0  2  0  0  0  0  0  0  0  0  0
    3.0980   -1.5380    0.1020 C   0  0  0  0  0  0  0  0  0  0  0  0
   -1.8290    1.9930    7.6070 C   0  0  1  0  0  0  0  0  0  0  0  0
   -2.0560    2.0540    9.1370 C   0  0  0  0  0  0  0  0  0  0  0  0
   -2.6610    0.7880    9.7070 C   0  0  0  0  0  0  0  0  0  0  0  0
   -0.0810   -4.1290    8.2680 C   0  0  0  0  0  0  0  0  0  0  0  0
    0.9390   -4.5010    8.8370 O   0  0  0  0  0  0  0  0  0  0  0  0
   -0.8560   -4.9890    7.3050 C   0  0  0  0  0  0  0  0  0  0  0  0
    2.7660    4.7500    1.3540 C   0  0  0  0  0  0  0  0  0  0  0  0
    1.9220    5.5950    1.6460 O   0  0  0  0  0  0  0  0  0  0  0  0
    4.1530    5.1330    0.8660 C   0  0  0  0  0  0  0  0  0  0  0  0
    0.9830   -2.8390    6.2230 O   0  0  0  0  0  0  0  0  0  0  0  0
    3.0820    2.8130   -0.7530 O   0  0  0  0  0  0  0  0  0  0  0  0
    4.8070    6.1230    1.8110 C   0  0  0  0  0  0  0  0  0  0  0  0
    4.4970    0.2350   -1.0400 C   0  0  0  0  0  0  0  0  0  0  0  0
    4.5080   -0.2850   -2.4930 C   0  0  0  0  0  0  0  0  0  0  0  0
   -1.2330    3.3750    7.1850 C   0  0  0  0  0  0  0  0  0  0  0  0
   -3.1740    1.7840    6.8600 C   0  0  0  0  0  0  0  0  0  0  0  0
   -2.0200   -3.9930   -5.1400 C   0  0  0  0  0  0  0  0  0  0  0  0
   -1.0400   -4.1150   -4.1370 C   0  0  0  0  0  0  0  0  0  0  0  0
    1.0850   -1.4500   -8.0380 C   0  0  0  0  0  0  0  0  0  0  0  0
    1.9860   -1.2340   -6.9700 C   0  0  0  0  0  0  0  0  0  0  0  0
   -1.7060   -3.3460   -6.3580 C   0  0  0  0  0  0  0  0  0  0  0  0
    0.2290   -3.5170   -4.3570 C   0  0  0  0  0  0  0  0  0  0  0  0
   -0.1500   -2.1190   -7.8060 C   0  0  0  0  0  0  0  0  0  0  0  0
    1.6350   -1.7960   -5.7050 C   0  0  0  0  0  0  0  0  0  0  0  0
   -0.4470   -2.7110   -6.5490 C   0  0  0  0  0  0  0  0  0  0  0  0
    0.4990   -2.6750   -5.5070 C   0  0  0  0  0  0  0  0  0  0  0  0
   -3.3040   -4.5720   -4.9560 C   0  0  0  0  0  0  0  0  0  0  0  0
   -3.6270   -5.2350   -3.7510 C   0  0  0  0  0  0  0  0  0  0  0  0
   -2.6480   -5.3560   -2.7660 C   0  0  0  0  0  0  0  0  0  0  0  0
   -1.3460   -4.8670   -2.9670 C   0  0  0  0  0  0  0  0  0  0  0  0
    1.3830   -0.9630   -9.3380 C   0  0  0  0  0  0  0  0  0  0  0  0
    2.5890   -0.2830   -9.5490 C   0  0  0  0  0  0  0  0  0  0  0  0
    3.4720   -0.0460   -8.5000 C   0  0  0  0  0  0  0  0  0  0  0  0
    3.1860   -0.4630   -7.1930 C   0  0  0  0  0  0  0  0  0  0  0  0
   -4.2690   -4.5110   -5.9830 C   0  0  0  0  0  0  0  0  0  0  0  0
   -5.5350   -5.0820   -5.7880 C   0  0  0  0  0  0  0  0  0  0  0  0
   -5.8390   -5.7150   -4.5920 C   0  0  0  0  0  0  0  0  0  0  0  0
   -4.8990   -5.7950   -3.5740 C   0  0  0  0  0  0  0  0  0  0  0  0
   -3.9330   -3.9020   -7.1940 C   0  0  0  0  0  0  0  0  0  0  0  0
   -2.6670   -3.3380   -7.3920 C   0  0  0  0  0  0  0  0  0  0  0  0
   -2.3450   -2.7880   -8.6310 C   0  0  0  0  0  0  0  0  0  0  0  0
   -1.0960   -2.2090   -8.8560 C   0  0  0  0  0  0  0  0  0  0  0  0
    0.4470   -1.1550  -10.3680 C   0  0  0  0  0  0  0  0  0  0  0  0
   -0.7890   -1.7300  -10.1270 C   0  0  0  0  0  0  0  0  0  0  0  0
    1.3410   -3.8650   -3.3840 C   0  0  0  0  0  0  0  0  0  0  0  0
    1.1560   -5.1550   -2.5440 C   0  0  1  0  0  0  0  0  0  0  0  0
   -0.2630   -5.1110   -1.9210 C   0  0  2  0  0  0  0  0  0  0  0  0
    2.4380   -1.3330   -4.5040 C   0  0  0  0  0  0  0  0  0  0  0  0
    3.1530    0.0010   -4.7500 C   0  0  2  0  0  0  0  0  0  0  0  0
    4.1100   -0.1220   -5.9800 C   0  0  2  0  0  0  0  0  0  0  0  0
   -0.4680   -6.3140   -1.0070 C   0  0  0  0  0  0  0  0  0  0  0  0
   -0.9540   -7.3930   -1.3310 O   0  0  0  0  0  0  0  0  0  0  0  0
   -7.0810   -6.2640   -4.4580 O   0  0  0  0  0  0  0  0  0  0  0  0
    4.6370    0.6010   -8.7920 O   0  0  0  0  0  0  0  0  0  0  0  0
    0.6890   -0.7950  -11.6680 O   0  0  0  0  0  0  0  0  0  0  0  0
    1.5050   -6.4510   -3.3540 C   0  0  0  0  0  0  0  0  0  0  0  0
    4.8890    1.2120   -6.1140 C   0  0  0  0  0  0  0  0  0  0  0  0
    0.6080   -6.8780   -4.5050 C   0  0  0  0  0  0  0  0  0  0  0  0
    5.1590   -1.2490   -5.8530 C   0  0  0  0  0  0  0  0  0  0  0  0
    2.2180   -5.0920   -1.4120 C   0  0  0  0  0  0  0  0  0  0  0  0
    3.6650    0.6030   -3.4180 C   0  0  0  0  0  0  0  0  0  0  0  0
   -1.9300    0.0960   -2.0190 H   0  0  0  0  0  0  0  0  0  0  0  0
   -5.8310    3.3040   -1.0580 H   0  0  0  0  0  0  0  0  0  0  0  0
   -0.9480    1.0960    0.1740 H   0  0  0  0  0  0  0  0  0  0  0  0
   -4.5280    0.6900   -1.7670 H   0  0  0  0  0  0  0  0  0  0  0  0
   -3.7040    1.9790   -2.7170 H   0  0  0  0  0  0  0  0  0  0  0  0
   -6.6990    6.5880    2.2910 H   0  0  0  0  0  0  0  0  0  0  0  0
   -6.8380    5.0720    0.3810 H   0  0  0  0  0  0  0  0  0  0  0  0
   -3.4500    7.4930    5.6510 H   0  0  0  0  0  0  0  0  0  0  0  0
   -5.4480    7.4910    4.2390 H   0  0  0  0  0  0  0  0  0  0  0  0
   -0.8460    2.5300    2.1260 H   0  0  0  0  0  0  0  0  0  0  0  0
   -2.0320    6.7840    7.2670 H   0  0  0  0  0  0  0  0  0  0  0  0
   -0.4500    6.0540    7.4140 H   0  0  0  0  0  0  0  0  0  0  0  0
   -3.0840    4.5320    7.1430 H   0  0  0  0  0  0  0  0  0  0  0  0
   -2.1330    4.7490    8.6140 H   0  0  0  0  0  0  0  0  0  0  0  0
    2.2980   -3.9840    1.6030 H   0  0  0  0  0  0  0  0  0  0  0  0
    0.5330   -3.1680    3.4450 H   0  0  0  0  0  0  0  0  0  0  0  0
    2.2060   -3.2590    4.1220 H   0  0  0  0  0  0  0  0  0  0  0  0
    0.9620    2.4700    5.6790 H   0  0  0  0  0  0  0  0  0  0  0  0
   -0.5150    2.1350    4.6640 H   0  0  0  0  0  0  0  0  0  0  0  0
   -2.6320   -1.5350   10.9970 H   0  0  0  0  0  0  0  0  0  0  0  0
   -1.4940   -3.6240   10.3840 H   0  0  0  0  0  0  0  0  0  0  0  0
    1.6090    3.6160    3.4650 H   0  0  0  0  0  0  0  0  0  0  0  0
    2.3190    0.0910   -1.0330 H   0  0  0  0  0  0  0  0  0  0  0  0
    4.1140   -1.9540    0.1290 H   0  0  0  0  0  0  0  0  0  0  0  0
    2.5770   -2.0840   -0.6930 H   0  0  0  0  0  0  0  0  0  0  0  0
   -1.0980    2.2510    9.6400 H   0  0  0  0  0  0  0  0  0  0  0  0
   -2.7290    2.8750    9.4080 H   0  0  0  0  0  0  0  0  0  0  0  0
   -2.6570    0.8690   10.8010 H   0  0  0  0  0  0  0  0  0  0  0  0
   -3.7090    0.6790    9.3990 H   0  0  0  0  0  0  0  0  0  0  0  0
   -1.6600   -4.4250    6.8230 H   0  0  0  0  0  0  0  0  0  0  0  0
   -0.1860   -5.3640    6.5300 H   0  0  0  0  0  0  0  0  0  0  0  0
   -1.2990   -5.8300    7.8500 H   0  0  0  0  0  0  0  0  0  0  0  0
    4.0590    5.5590   -0.1390 H   0  0  0  0  0  0  0  0  0  0  0  0
    4.7950    4.2460    0.7950 H   0  0  0  0  0  0  0  0  0  0  0  0
    1.9240   -2.5820    6.1740 H   0  0  0  0  0  0  0  0  0  0  0  0
    2.5320    3.5930   -0.9470 H   0  0  0  0  0  0  0  0  0  0  0  0
    4.8180    5.7370    2.8370 H   0  0  0  0  0  0  0  0  0  0  0  0
    4.2750    7.0780    1.8150 H   0  0  0  0  0  0  0  0  0  0  0  0
    5.8410    6.3090    1.5070 H   0  0  0  0  0  0  0  0  0  0  0  0
    5.3070   -0.2540   -0.4820 H   0  0  0  0  0  0  0  0  0  0  0  0
    4.7820    1.2910   -1.0550 H   0  0  0  0  0  0  0  0  0  0  0  0
    4.1680   -1.3240   -2.4960 H   0  0  0  0  0  0  0  0  0  0  0  0
    5.5430   -0.2890   -2.8540 H   0  0  0  0  0  0  0  0  0  0  0  0
   -1.1260    3.3950    6.1050 H   0  0  0  0  0  0  0  0  0  0  0  0
   -0.2270    3.4870    7.6140 H   0  0  0  0  0  0  0  0  0  0  0  0
   -3.0440    1.9030    5.7780 H   0  0  0  0  0  0  0  0  0  0  0  0
   -3.9410    2.4970    7.1860 H   0  0  0  0  0  0  0  0  0  0  0  0
   -3.5890    0.7820    7.0160 H   0  0  0  0  0  0  0  0  0  0  0  0
   -2.9000   -5.8860   -1.8500 H   0  0  0  0  0  0  0  0  0  0  0  0
    2.8340    0.1000  -10.5350 H   0  0  0  0  0  0  0  0  0  0  0  0
   -6.2880   -5.0450   -6.5700 H   0  0  0  0  0  0  0  0  0  0  0  0
   -5.1400   -6.3070   -2.6460 H   0  0  0  0  0  0  0  0  0  0  0  0
   -4.6670   -3.8810   -7.9980 H   0  0  0  0  0  0  0  0  0  0  0  0
   -3.0760   -2.8200   -9.4380 H   0  0  0  0  0  0  0  0  0  0  0  0
   -1.5010   -1.8160  -10.9460 H   0  0  0  0  0  0  0  0  0  0  0  0
    1.4350   -3.0240   -2.6880 H   0  0  0  0  0  0  0  0  0  0  0  0
    2.2800   -3.9810   -3.9380 H   0  0  0  0  0  0  0  0  0  0  0  0
   -0.3320   -4.2420   -1.2500 H   0  0  0  0  0  0  0  0  0  0  0  0
    1.7460   -1.1710   -3.6690 H   0  0  0  0  0  0  0  0  0  0  0  0
    3.1570   -2.1070   -4.2330 H   0  0  0  0  0  0  0  0  0  0  0  0
    2.3760    0.7240   -5.0540 H   0  0  0  0  0  0  0  0  0  0  0  0
   -0.0920   -6.1770    0.0230 H   0  0  0  0  0  0  0  0  0  0  0  0
   -7.1330   -6.7120   -3.6000 H   0  0  0  0  0  0  0  0  0  0  0  0
    4.6100    0.9470   -9.7000 H   0  0  0  0  0  0  0  0  0  0  0  0
    1.6210   -0.9820  -11.8520 H   0  0  0  0  0  0  0  0  0  0  0  0
    2.5220   -6.3430   -3.7580 H   0  0  0  0  0  0  0  0  0  0  0  0
    1.5590   -7.3040   -2.6620 H   0  0  0  0  0  0  0  0  0  0  0  0
    5.4610    1.4380   -5.2080 H   0  0  0  0  0  0  0  0  0  0  0  0
    4.2130    2.0520   -6.3130 H   0  0  0  0  0  0  0  0  0  0  0  0
    5.6530    1.1890   -6.8960 H   0  0  0  0  0  0  0  0  0  0  0  0
   -0.4030   -7.1150   -4.1690 H   0  0  0  0  0  0  0  0  0  0  0  0
    0.5660   -6.1260   -5.2970 H   0  0  0  0  0  0  0  0  0  0  0  0
    1.0070   -7.7920   -4.9610 H   0  0  0  0  0  0  0  0  0  0  0  0
    4.7080   -2.2450   -5.8030 H   0  0  0  0  0  0  0  0  0  0  0  0
    5.8260   -1.2590   -6.7250 H   0  0  0  0  0  0  0  0  0  0  0  0
    5.7860   -1.1170   -4.9670 H   0  0  0  0  0  0  0  0  0  0  0  0
    1.9950   -4.2820   -0.7140 H   0  0  0  0  0  0  0  0  0  0  0  0
    2.2610   -6.0230   -0.8330 H   0  0  0  0  0  0  0  0  0  0  0  0
    3.2210   -4.9140   -1.8190 H   0  0  0  0  0  0  0  0  0  0  0  0
    2.7630    0.9120   -2.8800 H   0  0  0  0  0  0  0  0  0  0  0  0
    4.1950    1.5460   -3.5850 H   0  0  0  0  0  0  0  0  0  0  0  0
  1  2  2  0
  1  4  1  0
  1 10  1  0
  2  5  1  0
  2 13  1  0
  3  6  2  0
  3  7  1  0
  3111  1  0
  4  8  2  0
  4 19  1  0
  5  9  2  0
  5112  1  0
  6  8  1  0
  6113  1  0
  7  9  1  0
  7114  1  0
  7115  1  0
  8  9  1  0
 10 11  2  0
 10 14  1  0
 11 12  1  0
 11 17  1  0
 12 13  2  0
 12116  1  0
 13117  1  0
 14 15  2  0
 14 18  1  0
 15 16  1  0
 15 20  1  0
 16 17  2  0
 16118  1  0
 17119  1  0
 18 19  2  0
 19120  1  0
 20 21  2  0
 20 22  1  0
 22 23  1  0
 22121  1  0
 22122  1  0
 23 64  1  0
 23123  1  0
 23124  1  0
 24 25  2  0
 24 27  1  0
 24 40  1  0
 25 29  1  0
 25 43  1  0
 26 28  2  0
 26 30  1  0
 26125  1  0
 27 35  2  0
 27 50  1  0
 28 34  1  0
 28 49  1  0
 29 38  2  0
 29 59  1  0
 30 37  1  0
 30126  1  0
 30127  1  0
 31 32  1  0
 31 34  2  0
 31 44  1  0
 32 36  2  0
 32 47  1  0
 33 35  1  0
 33 36  1  0
 33128  1  0
 33129  1  0
 34 37  1  0
 35 38  1  0
 36 39  1  0
 37 39  2  0
 38 39  1  0
 40 41  2  0
 40 52  1  0
 41 42  1  0
 41130  1  0
 42 43  2  0
 42131  1  0
 43 53  1  0
 44 45  2  0
 44 48  1  0
 45 46  1  0
 45 60  1  0
 46 47  2  0
 46 56  1  0
 47132  1  0
 48 49  1  0
 48 62  1  0
 48133  1  6
 49134  1  0
 49135  1  0
 50 51  1  0
 50 64  1  6
 50 65  1  0
 51 52  1  0
 51136  1  0
 51137  1  0
 52138  1  0
 52139  1  0
 53 54  2  0
 53 55  1  0
 55140  1  0
 55141  1  0
 55142  1  0
 56 57  2  0
 56 58  1  0
 58 61  1  0
 58143  1  0
 58144  1  0
 59145  1  0
 60146  1  0
 61147  1  0
 61148  1  0
 61149  1  0
 62 63  1  0
 62150  1  0
 62151  1  0
 63110  1  0
 63152  1  0
 63153  1  0
 64154  1  0
 64155  1  0
 65156  1  0
 65157  1  0
 65158  1  0
 66 67  1  0
 66 70  1  0
 66 76  2  0
 67 71  1  0
 67 79  2  0
 68 69  1  0
 68 72  2  0
 68 80  1  0
 69 73  2  0
 69 83  1  0
 70 74  2  0
 70 89  1  0
 71 75  2  0
 71 94  1  0
 72 74  1  0
 72 91  1  0
 73 75  1  0
 73 97  1  0
 74 75  1  0
 76 77  1  0
 76 84  1  0
 77 78  2  0
 77 87  1  0
 78 79  1  0
 78159  1  0
 79 96  1  0
 80 81  2  0
 80 92  1  0
 81 82  1  0
 81160  1  0
 82 83  2  0
 82103  1  0
 83 99  1  0
 84 85  2  0
 84 88  1  0
 85 86  1  0
 85161  1  0
 86 87  2  0
 86102  1  0
 87162  1  0
 88 89  2  0
 88163  1  0
 89 90  1  0
 90 91  2  0
 90164  1  0
 91 93  1  0
 92 93  2  0
 92104  1  0
 93165  1  0
 94 95  1  0
 94166  1  0
 94167  1  0
 95 96  1  0
 95105  1  6
 95109  1  0
 96100  1  0
 96168  1  1
 97 98  1  0
 97169  1  0
 97170  1  0
 98 99  1  0
 98110  1  0
 98171  1  6
 99106  1  6
 99108  1  0
100101  2  0
100172  1  0
102173  1  0
103174  1  0
104175  1  0
105107  1  0
105176  1  0
105177  1  0
106178  1  0
106179  1  0
106180  1  0
107181  1  0
107182  1  0
107183  1  0
108184  1  0
108185  1  0
108186  1  0
109187  1  0
109188  1  0
109189  1  0
110190  1  0
110191  1  0
M  END
