
     RDKit          3D

201217  0  0  0  0  0  0  0  0999 V2000
   -5.5260    2.8470   -1.7130 C   0  0  0  0  0  0  0  0  0  0  0  0
   -5.9240    4.0740   -2.2750 C   0  0  0  0  0  0  0  0  0  0  0  0
   -5.0000    4.8900   -2.9390 C   0  0  0  0  0  0  0  0  0  0  0  0
   -3.6460    4.5510   -2.9500 C   0  0  0  0  0  0  0  0  0  0  0  0
   -3.2140    3.3100   -2.4460 C   0  0  0  0  0  0  0  0  0  0  0  0
   -4.1710    2.4320   -1.8480 C   0  0  0  0  0  0  0  0  0  0  0  0
   -7.3100    4.5820   -2.2030 C   0  0  0  0  0  0  0  0  0  0  0  0
   -7.9140    4.7490   -3.2620 O   0  0  0  0  0  0  0  0  0  0  0  0
   -7.8290    5.0640   -0.8580 C   0  0  0  0  0  0  0  0  0  0  0  0
   -6.7310    1.8080   -0.8700 S   0  0  0  0  0  0  0  0  0  0  0  0
   -5.3990    6.0390   -3.5790 O   0  0  0  0  0  0  0  0  0  0  0  0
   -2.7110    5.4060   -3.4870 O   0  0  0  0  0  0  0  0  0  0  0  0
   -9.2660    4.6390   -0.6200 C   0  0  0  0  0  0  0  0  0  0  0  0
   -1.7440    2.9210   -2.5670 C   0  0  0  0  0  0  0  0  0  0  0  0
   -3.7110    1.0870   -1.3370 C   0  0  0  0  0  0  0  0  0  0  0  0
    2.1290   -0.2730   -3.8920 C   0  0  0  0  0  0  0  0  0  0  0  0
    3.1950   -1.2090   -4.0370 C   0  0  0  0  0  0  0  0  0  0  0  0
    0.0960   -3.9590   -1.7990 C   0  0  0  0  0  0  0  0  0  0  0  0
    0.9170   -0.6920   -3.2870 C   0  0  0  0  0  0  0  0  0  0  0  0
    3.0560   -2.5310   -3.5410 C   0  0  0  0  0  0  0  0  0  0  0  0
   -0.1940   -2.6350   -1.8420 C   0  0  0  0  0  0  0  0  0  0  0  0
    1.4210   -4.2470   -2.4710 C   0  0  0  0  0  0  0  0  0  0  0  0
    0.8280   -1.9740   -2.7050 C   0  0  0  0  0  0  0  0  0  0  0  0
    1.8610   -2.8880   -2.9200 C   0  0  0  0  0  0  0  0  0  0  0  0
    2.2660    1.0710   -4.3540 C   0  0  0  0  0  0  0  0  0  0  0  0
    3.5350    1.4880   -4.8450 C   0  0  0  0  0  0  0  0  0  0  0  0
    4.6130    0.5430   -4.9720 C   0  0  0  0  0  0  0  0  0  0  0  0
    4.4020   -0.8270   -4.6640 C   0  0  0  0  0  0  0  0  0  0  0  0
    1.1520    1.9800   -4.3200 C   0  0  0  0  0  0  0  0  0  0  0  0
    1.3790    3.3120   -4.7500 C   0  0  0  0  0  0  0  0  0  0  0  0
    2.6200    3.7530   -5.1970 C   0  0  0  0  0  0  0  0  0  0  0  0
    3.6690    2.8390   -5.2440 C   0  0  0  0  0  0  0  0  0  0  0  0
   -0.1020    1.4830   -3.8780 C   0  0  0  0  0  0  0  0  0  0  0  0
   -0.1700    0.1820   -3.3550 C   0  0  0  0  0  0  0  0  0  0  0  0
    5.9060    0.9020   -5.4270 C   0  0  0  0  0  0  0  0  0  0  0  0
    6.9020   -0.0400   -5.6750 C   0  0  0  0  0  0  0  0  0  0  0  0
    6.6380   -1.3980   -5.5070 C   0  0  0  0  0  0  0  0  0  0  0  0
    5.3980   -1.8130   -4.9920 C   0  0  0  0  0  0  0  0  0  0  0  0
    4.1230   -3.4230   -3.6630 N   0  0  0  0  0  0  0  0  0  0  0  0
    4.9800   -3.2910   -4.8620 C   0  0  1  0  0  0  0  0  0  0  0  0
    8.2130    0.4450   -6.1530 C   0  0  0  0  0  0  0  0  0  0  0  0
    9.1130   -0.3400   -6.4360 O   0  0  0  0  0  0  0  0  0  0  0  0
    7.5730   -2.3290   -5.8630 O   0  0  0  0  0  0  0  0  0  0  0  0
    0.3820    4.2530   -4.7440 O   0  0  0  0  0  0  0  0  0  0  0  0
    4.1310   -3.6650   -6.1160 C   0  0  0  0  0  0  0  0  0  0  0  0
   -1.2400   -1.8610   -1.0880 C   0  0  0  0  0  0  0  0  0  0  0  0
   -0.6410   -0.9210   -0.0470 C   0  0  0  0  0  0  0  0  0  0  0  0
    4.5740   -4.1150   -2.4590 C   0  0  0  0  0  0  0  0  0  0  0  0
   -1.4310    2.2250   -3.8970 C   0  0  0  0  0  0  0  0  0  0  0  0
   -0.5710   -5.1610   -1.1640 C   0  0  0  0  0  0  0  0  0  0  0  0
    6.1110   -4.3470   -4.8260 C   0  0  0  0  0  0  0  0  0  0  0  0
    2.8290    5.1550   -5.6870 C   0  0  0  0  0  0  0  0  0  0  0  0
   -3.8230   -5.1930    2.2740 C   0  0  0  0  0  0  0  0  0  0  0  0
   -4.9860   -4.3970    2.6180 C   0  0  0  0  0  0  0  0  0  0  0  0
   -2.6680   -4.0510    6.6030 C   0  0  0  0  0  0  0  0  0  0  0  0
   -2.8600   -5.4430    3.2720 C   0  0  0  0  0  0  0  0  0  0  0  0
   -5.0530   -3.6230    3.7980 C   0  0  0  0  0  0  0  0  0  0  0  0
   -2.2110   -4.9090    5.6760 C   0  0  0  0  0  0  0  0  0  0  0  0
   -3.8140   -3.2030    6.0800 C   0  0  2  0  0  0  0  0  0  0  0  0
   -3.0120   -4.7380    4.4690 C   0  0  0  0  0  0  0  0  0  0  0  0
   -4.0300   -3.8080    4.7150 C   0  0  0  0  0  0  0  0  0  0  0  0
   -1.7170   -6.4540    3.2490 C   0  0  2  0  0  0  0  0  0  0  0  0
   -1.5120   -7.0730    4.6790 C   0  0  2  0  0  0  0  0  0  0  0  0
   -1.1960   -5.9910    5.7400 C   0  0  0  0  0  0  0  0  0  0  0  0
   -3.8800   -5.7020    0.8310 C   0  0  2  0  0  0  0  0  0  0  0  0
   -5.0860   -6.6400    0.7200 C   0  0  0  0  0  0  0  0  0  0  0  0
   -6.3780   -5.9240    1.1700 C   0  0  0  0  0  0  0  0  0  0  0  0
   -6.1740   -4.4760    1.6650 C   0  0  0  0  0  0  0  0  0  0  0  0
   -3.4230   -1.7270    6.0290 C   0  0  0  0  0  0  0  0  0  0  0  0
   -4.0240   -0.8830    6.7120 O   0  0  0  0  0  0  0  0  0  0  0  0
   -2.2780   -1.3120    5.1120 C   0  0  0  0  0  0  0  0  0  0  0  0
   -1.9920    0.1820    5.1770 C   0  0  0  0  0  0  0  0  0  0  0  0
   -2.6330   -6.1680    0.0510 C   0  0  0  0  0  0  0  0  0  0  0  0
   -0.4470   -8.1710    4.7060 C   0  0  0  0  0  0  0  0  0  0  0  0
   -1.9020   -4.9170   -0.4700 C   0  0  0  0  0  0  0  0  0  0  0  0
   -0.4280   -5.8070    2.7350 C   0  0  0  0  0  0  0  0  0  0  0  0
   -6.2130   -2.7200    4.1110 C   0  0  0  0  0  0  0  0  0  0  0  0
    4.9530    4.5930    1.9900 C   0  0  0  0  0  0  0  0  0  0  0  0
    5.3920    5.2840    0.8570 C   0  0  0  0  0  0  0  0  0  0  0  0
    0.2250    5.6520    0.5640 C   0  0  0  0  0  0  0  0  0  0  0  0
    0.7240    6.1140   -0.6680 C   0  0  0  0  0  0  0  0  0  0  0  0
    3.5470    4.4970    2.2280 C   0  0  0  0  0  0  0  0  0  0  0  0
    4.4510    5.8100   -0.0250 C   0  0  0  0  0  0  0  0  0  0  0  0
    1.1400    5.2750    1.5990 C   0  0  0  0  0  0  0  0  0  0  0  0
    2.1350    6.2350   -0.8120 C   0  0  0  0  0  0  0  0  0  0  0  0
    2.5640    5.1490    1.3670 C   0  0  0  0  0  0  0  0  0  0  0  0
    3.0490    5.7330    0.1700 C   0  0  0  0  0  0  0  0  0  0  0  0
    5.9430    4.0070    2.8260 C   0  0  0  0  0  0  0  0  0  0  0  0
    7.3130    4.1450    2.5380 C   0  0  0  0  0  0  0  0  0  0  0  0
    7.7360    4.8700    1.4260 C   0  0  0  0  0  0  0  0  0  0  0  0
    6.7670    5.4250    0.5890 C   0  0  0  0  0  0  0  0  0  0  0  0
   -1.1860    5.5780    0.7180 C   0  0  0  0  0  0  0  0  0  0  0  0
   -2.0810    5.9230   -0.2960 C   0  0  0  0  0  0  0  0  0  0  0  0
   -1.6000    6.3430   -1.5260 C   0  0  0  0  0  0  0  0  0  0  0  0
   -0.2120    6.4330   -1.6990 C   0  0  0  0  0  0  0  0  0  0  0  0
    3.1220    3.6230    3.4030 C   0  0  0  0  0  0  0  0  0  0  0  0
    4.1590    2.5760    3.8480 C   0  0  2  0  0  0  0  0  0  0  0  0
    5.5410    3.2190    4.0570 C   0  0  2  0  0  0  0  0  0  0  0  0
    2.7820    7.0920   -2.2940 S   0  0  0  0  0  0  0  0  0  0  0  0
    4.2110    1.3900    2.8720 C   0  0  0  0  0  0  0  0  0  0  0  0
    5.5870    4.1270    5.2910 C   0  0  0  0  0  0  0  0  0  0  0  0
    9.1900    5.0010    1.0900 C   0  0  0  0  0  0  0  0  0  0  0  0
    0.5630    5.0720    2.9870 C   0  0  0  0  0  0  0  0  0  0  0  0
   -2.5410    6.5910   -2.6850 C   0  0  0  0  0  0  0  0  0  0  0  0
   -7.1910    4.7140   -0.0400 H   0  0  0  0  0  0  0  0  0  0  0  0
   -7.7620    6.1580   -0.8670 H   0  0  0  0  0  0  0  0  0  0  0  0
   -5.9900    1.5780    0.2240 H   0  0  0  0  0  0  0  0  0  0  0  0
   -6.3140    5.9030   -3.9050 H   0  0  0  0  0  0  0  0  0  0  0  0
   -9.3380    3.5560   -0.4820 H   0  0  0  0  0  0  0  0  0  0  0  0
   -9.9120    4.9110   -1.4600 H   0  0  0  0  0  0  0  0  0  0  0  0
   -9.6600    5.1160    0.2820 H   0  0  0  0  0  0  0  0  0  0  0  0
   -1.4670    2.2930   -1.7150 H   0  0  0  0  0  0  0  0  0  0  0  0
   -1.0960    3.7960   -2.4650 H   0  0  0  0  0  0  0  0  0  0  0  0
   -4.5150    0.3510   -1.2460 H   0  0  0  0  0  0  0  0  0  0  0  0
   -3.0100    0.6360   -2.0410 H   0  0  0  0  0  0  0  0  0  0  0  0
   -3.2260    1.2020   -0.3630 H   0  0  0  0  0  0  0  0  0  0  0  0
    1.2860   -4.9140   -3.3290 H   0  0  0  0  0  0  0  0  0  0  0  0
    2.1050   -4.6910   -1.7420 H   0  0  0  0  0  0  0  0  0  0  0  0
    4.6060    3.2140   -5.6370 H   0  0  0  0  0  0  0  0  0  0  0  0
   -1.1510   -0.1670   -3.0620 H   0  0  0  0  0  0  0  0  0  0  0  0
    6.1550    1.9450   -5.6030 H   0  0  0  0  0  0  0  0  0  0  0  0
    8.3460    1.5340   -6.2470 H   0  0  0  0  0  0  0  0  0  0  0  0
    8.3980   -1.8690   -6.1430 H   0  0  0  0  0  0  0  0  0  0  0  0
   -0.0700    4.1610   -5.6000 H   0  0  0  0  0  0  0  0  0  0  0  0
    4.7350   -3.6270   -7.0280 H   0  0  0  0  0  0  0  0  0  0  0  0
    3.7260   -4.6800   -6.0190 H   0  0  0  0  0  0  0  0  0  0  0  0
    3.2740   -2.9970   -6.2720 H   0  0  0  0  0  0  0  0  0  0  0  0
   -1.9240   -2.5010   -0.5390 H   0  0  0  0  0  0  0  0  0  0  0  0
   -1.9080   -1.3390   -1.7670 H   0  0  0  0  0  0  0  0  0  0  0  0
    0.0130   -0.1640   -0.4970 H   0  0  0  0  0  0  0  0  0  0  0  0
   -0.0540   -1.4840    0.6880 H   0  0  0  0  0  0  0  0  0  0  0  0
   -1.4350   -0.3980    0.5020 H   0  0  0  0  0  0  0  0  0  0  0  0
    4.2870   -5.1740   -2.5210 H   0  0  0  0  0  0  0  0  0  0  0  0
    5.6620   -4.0580   -2.3270 H   0  0  0  0  0  0  0  0  0  0  0  0
    4.1520   -3.6920   -1.5350 H   0  0  0  0  0  0  0  0  0  0  0  0
   -2.2200    1.4900   -4.1200 H   0  0  0  0  0  0  0  0  0  0  0  0
   -1.5120    2.9100   -4.7450 H   0  0  0  0  0  0  0  0  0  0  0  0
   -0.7290   -5.9070   -1.9560 H   0  0  0  0  0  0  0  0  0  0  0  0
    0.1280   -5.6130   -0.4480 H   0  0  0  0  0  0  0  0  0  0  0  0
    6.5920   -4.4730   -5.8020 H   0  0  0  0  0  0  0  0  0  0  0  0
    5.7190   -5.3390   -4.5630 H   0  0  0  0  0  0  0  0  0  0  0  0
    6.8910   -4.0990   -4.0950 H   0  0  0  0  0  0  0  0  0  0  0  0
    2.3360    5.8840   -5.0370 H   0  0  0  0  0  0  0  0  0  0  0  0
    3.8930    5.4160   -5.7120 H   0  0  0  0  0  0  0  0  0  0  0  0
    2.4260    5.2600   -6.7000 H   0  0  0  0  0  0  0  0  0  0  0  0
   -2.3010   -3.9860    7.6170 H   0  0  0  0  0  0  0  0  0  0  0  0
   -4.6990   -3.3450    6.7100 H   0  0  0  0  0  0  0  0  0  0  0  0
   -2.0040   -7.2880    2.6020 H   0  0  0  0  0  0  0  0  0  0  0  0
   -2.4580   -7.5560    4.9700 H   0  0  0  0  0  0  0  0  0  0  0  0
   -0.1980   -5.5710    5.5760 H   0  0  0  0  0  0  0  0  0  0  0  0
   -1.1920   -6.4450    6.7380 H   0  0  0  0  0  0  0  0  0  0  0  0
   -4.1790   -4.8160    0.2480 H   0  0  0  0  0  0  0  0  0  0  0  0
   -5.2170   -6.9860   -0.3140 H   0  0  0  0  0  0  0  0  0  0  0  0
   -4.9310   -7.5400    1.3340 H   0  0  0  0  0  0  0  0  0  0  0  0
   -6.8340   -6.5120    1.9800 H   0  0  0  0  0  0  0  0  0  0  0  0
   -7.1070   -5.9200    0.3490 H   0  0  0  0  0  0  0  0  0  0  0  0
   -6.0100   -3.7910    0.8240 H   0  0  0  0  0  0  0  0  0  0  0  0
   -7.1030   -4.1650    2.1520 H   0  0  0  0  0  0  0  0  0  0  0  0
   -1.3750   -1.8620    5.3860 H   0  0  0  0  0  0  0  0  0  0  0  0
   -2.5480   -1.5680    4.0820 H   0  0  0  0  0  0  0  0  0  0  0  0
   -1.6370    0.4670    6.1730 H   0  0  0  0  0  0  0  0  0  0  0  0
   -1.2250    0.4520    4.4460 H   0  0  0  0  0  0  0  0  0  0  0  0
   -2.8950    0.7670    4.9690 H   0  0  0  0  0  0  0  0  0  0  0  0
   -1.9690   -6.8080    0.6250 H   0  0  0  0  0  0  0  0  0  0  0  0
   -2.9410   -6.7560   -0.8240 H   0  0  0  0  0  0  0  0  0  0  0  0
   -0.7230   -8.9890    4.0320 H   0  0  0  0  0  0  0  0  0  0  0  0
   -0.3550   -8.5910    5.7140 H   0  0  0  0  0  0  0  0  0  0  0  0
    0.5400   -7.8030    4.4140 H   0  0  0  0  0  0  0  0  0  0  0  0
   -1.7390   -4.2470    0.3830 H   0  0  0  0  0  0  0  0  0  0  0  0
   -2.5750   -4.4110   -1.1780 H   0  0  0  0  0  0  0  0  0  0  0  0
   -0.0340   -5.0470    3.4160 H   0  0  0  0  0  0  0  0  0  0  0  0
   -0.5710   -5.3030    1.7840 H   0  0  0  0  0  0  0  0  0  0  0  0
    0.3550   -6.5570    2.5800 H   0  0  0  0  0  0  0  0  0  0  0  0
   -7.0380   -3.3050    4.5290 H   0  0  0  0  0  0  0  0  0  0  0  0
   -5.9380   -1.9410    4.8260 H   0  0  0  0  0  0  0  0  0  0  0  0
   -6.5560   -2.2000    3.2100 H   0  0  0  0  0  0  0  0  0  0  0  0
    4.8460    6.2850   -0.9210 H   0  0  0  0  0  0  0  0  0  0  0  0
    8.0510    3.6850    3.1940 H   0  0  0  0  0  0  0  0  0  0  0  0
    7.0900    5.9750   -0.2930 H   0  0  0  0  0  0  0  0  0  0  0  0
   -1.6270    5.2000    1.6380 H   0  0  0  0  0  0  0  0  0  0  0  0
   -3.1490    5.8110   -0.1290 H   0  0  0  0  0  0  0  0  0  0  0  0
    0.1460    6.7080   -2.6910 H   0  0  0  0  0  0  0  0  0  0  0  0
    2.2090    3.0770    3.1440 H   0  0  0  0  0  0  0  0  0  0  0  0
    2.9160    4.2700    4.2630 H   0  0  0  0  0  0  0  0  0  0  0  0
    3.8260    2.1600    4.8080 H   0  0  0  0  0  0  0  0  0  0  0  0
    6.2690    2.4070    4.2100 H   0  0  0  0  0  0  0  0  0  0  0  0
    2.0190    8.1870   -2.1520 H   0  0  0  0  0  0  0  0  0  0  0  0
    4.9590    0.6560    3.1920 H   0  0  0  0  0  0  0  0  0  0  0  0
    3.2460    0.8800    2.8460 H   0  0  0  0  0  0  0  0  0  0  0  0
    4.4530    1.6920    1.8520 H   0  0  0  0  0  0  0  0  0  0  0  0
    5.2810    3.5830    6.1890 H   0  0  0  0  0  0  0  0  0  0  0  0
    4.9420    5.0040    5.1810 H   0  0  0  0  0  0  0  0  0  0  0  0
    6.6030    4.5000    5.4570 H   0  0  0  0  0  0  0  0  0  0  0  0
    9.8210    4.7990    1.9610 H   0  0  0  0  0  0  0  0  0  0  0  0
    9.4590    4.2970    0.2950 H   0  0  0  0  0  0  0  0  0  0  0  0
    9.4130    6.0190    0.7540 H   0  0  0  0  0  0  0  0  0  0  0  0
    1.2710    5.3720    3.7610 H   0  0  0  0  0  0  0  0  0  0  0  0
    0.2330    4.0370    3.1290 H   0  0  0  0  0  0  0  0  0  0  0  0
   -0.2910    5.7360    3.1740 H   0  0  0  0  0  0  0  0  0  0  0  0
   -3.4880    7.0070   -2.3220 H   0  0  0  0  0  0  0  0  0  0  0  0
   -2.1140    7.3640   -3.3340 H   0  0  0  0  0  0  0  0  0  0  0  0
  1  2  2  0
  1  6  1  0
  1 10  1  0
  2  3  1  0
  2  7  1  0
  3  4  2  0
  3 11  1  0
  4  5  1  0
  4 12  1  0
  5  6  2  0
  5 14  1  0
  6 15  1  0
  7  8  2  0
  7  9  1  0
  9 13  1  0
  9105  1  0
  9106  1  0
 10107  1  0
 11108  1  0
 12104  1  0
 13109  1  0
 13110  1  0
 13111  1  0
 14 49  1  0
 14112  1  0
 14113  1  0
 15114  1  0
 15115  1  0
 15116  1  0
 16 17  2  0
 16 19  1  0
 16 25  1  0
 17 20  1  0
 17 28  1  0
 18 21  2  0
 18 22  1  0
 18 50  1  0
 19 23  2  0
 19 34  1  0
 20 24  2  0
 20 39  1  0
 21 23  1  0
 21 46  1  0
 22 24  1  0
 22117  1  0
 22118  1  0
 23 24  1  0
 25 26  2  0
 25 29  1  0
 26 27  1  0
 26 32  1  0
 27 28  2  0
 27 35  1  0
 28 38  1  0
 29 30  2  0
 29 33  1  0
 30 31  1  0
 30 44  1  0
 31 32  2  0
 31 52  1  0
 32119  1  0
 33 34  2  0
 33 49  1  0
 34120  1  0
 35 36  2  0
 35121  1  0
 36 37  1  0
 36 41  1  0
 37 38  2  0
 37 43  1  0
 38 40  1  0
 39 40  1  0
 39 48  1  0
 40 45  1  6
 40 51  1  0
 41 42  2  0
 41122  1  0
 43123  1  0
 44124  1  0
 45125  1  0
 45126  1  0
 45127  1  0
 46 47  1  0
 46128  1  0
 46129  1  0
 47130  1  0
 47131  1  0
 47132  1  0
 48133  1  0
 48134  1  0
 48135  1  0
 49136  1  0
 49137  1  0
 50 75  1  0
 50138  1  0
 50139  1  0
 51140  1  0
 51141  1  0
 51142  1  0
 52143  1  0
 52144  1  0
 52145  1  0
 53 54  2  0
 53 56  1  0
 53 65  1  0
 54 57  1  0
 54 68  1  0
 55 58  2  0
 55 59  1  0
 55146  1  0
 56 60  2  0
 56 62  1  0
 57 61  2  0
 57 77  1  0
 58 60  1  0
 58 64  1  0
 59 61  1  0
 59 69  1  0
 59147  1  1
 60 61  1  0
 62 63  1  0
 62 76  1  0
 62148  1  6
 63 64  1  0
 63 74  1  0
 63149  1  1
 64150  1  0
 64151  1  0
 65 66  1  0
 65 73  1  0
 65152  1  6
 66 67  1  0
 66153  1  0
 66154  1  0
 67 68  1  0
 67155  1  0
 67156  1  0
 68157  1  0
 68158  1  0
 69 70  2  0
 69 71  1  0
 71 72  1  0
 71159  1  0
 71160  1  0
 72161  1  0
 72162  1  0
 72163  1  0
 73 75  1  0
 73164  1  0
 73165  1  0
 74166  1  0
 74167  1  0
 74168  1  0
 75169  1  0
 75170  1  0
 76171  1  0
 76172  1  0
 76173  1  0
 77174  1  0
 77175  1  0
 77176  1  0
 78 79  1  0
 78 82  2  0
 78 88  1  0
 79 83  2  0
 79 91  1  0
 80 81  2  0
 80 84  1  0
 80 92  1  0
 81 85  1  0
 81 95  1  0
 82 86  1  0
 82 96  1  0
 83 87  1  0
 83177  1  0
 84 86  2  0
 84103  1  0
 85 87  2  0
 85 99  1  0
 86 87  1  0
 88 89  2  0
 88 98  1  0
 89 90  1  0
 89178  1  0
 90 91  2  0
 90102  1  0
 91179  1  0
 92 93  2  0
 92180  1  0
 93 94  1  0
 93181  1  0
 94 95  2  0
 94104  1  0
 95182  1  0
 96 97  1  0
 96183  1  0
 96184  1  0
 97 98  1  0
 97100  1  0
 97185  1  1
 98101  1  0
 98186  1  1
 99187  1  0
100188  1  0
100189  1  0
100190  1  0
101191  1  0
101192  1  0
101193  1  0
102194  1  0
102195  1  0
102196  1  0
103197  1  0
103198  1  0
103199  1  0
104200  1  0
104201  1  0
M  END
