
     RDKit          3D

185204  0  0  0  0  0  0  0  0999 V2000
   -7.4860    3.3810    0.0300 C   0  0  0  0  0  0  0  0  0  0  0  0
   -6.3190    3.9330   -0.5460 C   0  0  0  0  0  0  0  0  0  0  0  0
   -9.0120    7.7760    1.6050 C   0  0  0  0  0  0  0  0  0  0  0  0
   -7.8740    8.3880    1.0520 C   0  0  0  0  0  0  0  0  0  0  0  0
   -8.4210    4.2140    0.6640 C   0  0  0  0  0  0  0  0  0  0  0  0
   -6.1760    5.3530   -0.4730 C   0  0  0  0  0  0  0  0  0  0  0  0
   -9.1850    6.3920    1.4500 C   0  0  0  0  0  0  0  0  0  0  0  0
   -6.9480    7.5990    0.3470 C   0  0  0  0  0  0  0  0  0  0  0  0
   -8.2410    5.6010    0.7700 C   0  0  0  0  0  0  0  0  0  0  0  0
   -7.1030    6.1980    0.1990 C   0  0  0  0  0  0  0  0  0  0  0  0
   -7.7200    1.9940   -0.0200 C   0  0  0  0  0  0  0  0  0  0  0  0
   -6.8140    1.1260   -0.6220 C   0  0  0  0  0  0  0  0  0  0  0  0
   -5.6490    1.6330   -1.1740 C   0  0  0  0  0  0  0  0  0  0  0  0
   -5.3960    3.0080   -1.1180 C   0  0  0  0  0  0  0  0  0  0  0  0
   -9.9430    8.5620    2.3060 C   0  0  0  0  0  0  0  0  0  0  0  0
   -9.7420    9.9340    2.4650 C   0  0  0  0  0  0  0  0  0  0  0  0
   -8.6110   10.5370    1.9250 C   0  0  0  0  0  0  0  0  0  0  0  0
   -7.6850    9.7700    1.2160 C   0  0  0  0  0  0  0  0  0  0  0  0
   -5.0190    6.0050   -1.1100 C   0  0  0  0  0  0  0  0  0  0  0  0
   -5.0850    6.4150   -2.2630 O   0  0  0  0  0  0  0  0  0  0  0  0
   -0.6640    3.5480    0.5660 C   0  0  0  0  0  0  0  0  0  0  0  0
   -0.6850    3.7930   -0.8210 C   0  0  0  0  0  0  0  0  0  0  0  0
    6.3710    5.7340    0.6200 C   0  0  0  0  0  0  0  0  0  0  0  0
    6.3200    5.9040   -0.7590 C   0  0  0  0  0  0  0  0  0  0  0  0
    0.5840    3.4970    1.2360 C   0  0  0  0  0  0  0  0  0  0  0  0
    0.5020    4.1310   -1.4780 C   0  0  0  0  0  0  0  0  0  0  0  0
    5.2600    5.2320    1.2990 C   0  0  0  0  0  0  0  0  0  0  0  0
    5.1550    5.5800   -1.4590 C   0  0  0  0  0  0  0  0  0  0  0  0
    2.9520    4.3890    1.2750 C   0  0  0  0  0  0  0  0  0  0  0  0
    2.8300    4.7900   -1.4540 C   0  0  0  0  0  0  0  0  0  0  0  0
    1.7470    4.0450    0.6140 C   0  0  0  0  0  0  0  0  0  0  0  0
    1.6950    4.3190   -0.7710 C   0  0  0  0  0  0  0  0  0  0  0  0
    4.0820    4.8980    0.6070 C   0  0  0  0  0  0  0  0  0  0  0  0
    4.0270    5.0830   -0.7840 C   0  0  0  0  0  0  0  0  0  0  0  0
   -1.8890    3.3610    1.2570 C   0  0  0  0  0  0  0  0  0  0  0  0
   -3.0870    3.2860    0.5190 C   0  0  0  0  0  0  0  0  0  0  0  0
   -3.0870    3.4350   -0.8680 C   0  0  0  0  0  0  0  0  0  0  0  0
   -1.8920    3.7100   -1.5290 C   0  0  0  0  0  0  0  0  0  0  0  0
    0.5340    2.6380    2.5090 C   0  0  2  0  0  0  0  0  0  0  0  0
   -0.5050    3.2560    3.4500 C   0  0  0  0  0  0  0  0  0  0  0  0
   -1.9240    3.4100    2.8000 C   0  0  2  0  0  0  0  0  0  0  0  0
   -4.2090    3.4300   -1.6750 O   0  0  0  0  0  0  0  0  0  0  0  0
    1.8460    2.2720    3.2310 C   0  0  0  0  0  0  0  0  0  0  0  0
    1.8270    0.9950    4.0920 C   0  0  0  0  0  0  0  0  0  0  0  0
   -2.9250    2.3970    3.4380 C   0  0  0  0  0  0  0  0  0  0  0  0
   -2.4420    4.8250    3.1900 C   0  0  0  0  0  0  0  0  0  0  0  0
   -2.6610    0.9360    3.1240 C   0  0  0  0  0  0  0  0  0  0  0  0
    2.0080   -4.9380    1.4140 C   0  0  0  0  0  0  0  0  0  0  0  0
    1.0500   -4.1290    0.7720 C   0  0  0  0  0  0  0  0  0  0  0  0
   -0.6010   -8.9910   -0.2510 C   0  0  0  0  0  0  0  0  0  0  0  0
   -1.4750   -8.0750   -0.8470 C   0  0  0  0  0  0  0  0  0  0  0  0
    1.8550   -6.3600    1.3750 C   0  0  0  0  0  0  0  0  0  0  0  0
    0.0920   -4.7480   -0.0660 C   0  0  0  0  0  0  0  0  0  0  0  0
    0.5650   -8.4630    0.4170 C   0  0  0  0  0  0  0  0  0  0  0  0
   -1.1780   -6.7140   -0.7870 C   0  0  0  0  0  0  0  0  0  0  0  0
    0.8180   -7.0290    0.5910 C   0  0  0  0  0  0  0  0  0  0  0  0
   -0.0740   -6.1660   -0.0940 C   0  0  0  0  0  0  0  0  0  0  0  0
    3.0910   -4.3130    2.1020 C   0  0  0  0  0  0  0  0  0  0  0  0
    3.0560   -2.9360    2.3420 C   0  0  0  0  0  0  0  0  0  0  0  0
    2.0260   -2.1570    1.8280 C   0  0  0  0  0  0  0  0  0  0  0  0
    1.0470   -2.7220    1.0020 C   0  0  0  0  0  0  0  0  0  0  0  0
   -0.9630  -10.3670   -0.3660 C   0  0  0  0  0  0  0  0  0  0  0  0
   -2.1300  -10.7890   -1.0090 C   0  0  0  0  0  0  0  0  0  0  0  0
   -2.9670   -9.8500   -1.5740 C   0  0  0  0  0  0  0  0  0  0  0  0
   -2.6460   -8.5020   -1.5050 C   0  0  0  0  0  0  0  0  0  0  0  0
    2.7740   -7.1570    2.2990 C   0  0  0  0  0  0  0  0  0  0  0  0
    3.5960   -6.3420    3.3370 C   0  0  2  0  0  0  0  0  0  0  0  0
    4.2660   -5.1960    2.5430 C   0  0  2  0  0  0  0  0  0  0  0  0
   -0.7750   -3.8640   -0.9610 C   0  0  0  0  0  0  0  0  0  0  0  0
   -0.3150   -2.4120   -1.0250 C   0  0  0  0  0  0  0  0  0  0  0  0
   -0.0440   -1.8710    0.3760 C   0  0  1  0  0  0  0  0  0  0  0  0
    2.0590   -0.7180    2.1590 C   0  0  0  0  0  0  0  0  0  0  0  0
    2.6340    0.0420    1.3940 O   0  0  0  0  0  0  0  0  0  0  0  0
    1.3390   -0.2960    3.4290 C   0  0  0  0  0  0  0  0  0  0  0  0
   -4.0980  -10.2880   -2.1940 O   0  0  0  0  0  0  0  0  0  0  0  0
    1.7600   -9.7240    0.9730 S   0  0  0  0  0  0  0  0  0  0  0  0
    4.5380   -7.3160    4.0740 C   0  0  0  0  0  0  0  0  0  0  0  0
    5.4790   -4.4990    3.2080 C   0  0  0  0  0  0  0  0  0  0  0  0
    4.7720   -6.9410    5.5340 C   0  0  0  0  0  0  0  0  0  0  0  0
   -1.3140   -1.8700    1.2350 C   0  0  0  0  0  0  0  0  0  0  0  0
    2.8570   -0.8060   -4.7730 C   0  0  0  0  0  0  0  0  0  0  0  0
    3.1250    0.5360   -4.4240 C   0  0  0  0  0  0  0  0  0  0  0  0
    5.1490   -2.1880   -0.8170 C   0  0  0  0  0  0  0  0  0  0  0  0
    5.4010   -0.8420   -0.4820 C   0  0  0  0  0  0  0  0  0  0  0  0
    3.3600   -1.7960   -3.8890 C   0  0  0  0  0  0  0  0  0  0  0  0
    3.8580    0.8190   -3.2490 C   0  0  0  0  0  0  0  0  0  0  0  0
    4.5030   -2.5180   -1.9500 N   0  0  0  0  0  0  0  0  0  0  0  0
    5.0220    0.1580   -1.2970 N   0  0  0  0  0  0  0  0  0  0  0  0
    4.0770   -1.5090   -2.7320 C   0  0  0  0  0  0  0  0  0  0  0  0
    4.3330   -0.1710   -2.4040 C   0  0  0  0  0  0  0  0  0  0  0  0
    2.1150   -1.1010   -5.9760 C   0  0  0  0  0  0  0  0  0  0  0  0
    1.6550   -0.0450   -6.8150 C   0  0  0  0  0  0  0  0  0  0  0  0
    1.9210    1.2940   -6.4200 C   0  0  0  0  0  0  0  0  0  0  0  0
    2.6510    1.5680   -5.2510 C   0  0  0  0  0  0  0  0  0  0  0  0
    5.5660   -3.1910    0.0480 C   0  0  0  0  0  0  0  0  0  0  0  0
    6.1860   -2.9040    1.2740 C   0  0  0  0  0  0  0  0  0  0  0  0
    6.4320   -1.5700    1.5960 C   0  0  0  0  0  0  0  0  0  0  0  0
    6.0460   -0.5560    0.7150 C   0  0  0  0  0  0  0  0  0  0  0  0
    1.8170   -2.4280   -6.3770 C   0  0  0  0  0  0  0  0  0  0  0  0
    1.1250   -2.7330   -7.5510 C   0  0  0  0  0  0  0  0  0  0  0  0
    0.6890   -1.7150   -8.3800 C   0  0  0  0  0  0  0  0  0  0  0  0
    0.9670   -0.3910   -8.0140 C   0  0  0  0  0  0  0  0  0  0  0  0
    1.4100    2.4460   -7.2080 C   0  0  0  0  0  0  0  0  0  0  0  0
    1.7530    3.5980   -6.9520 O   0  0  0  0  0  0  0  0  0  0  0  0
    2.9320    2.8610   -4.8580 O   0  0  0  0  0  0  0  0  0  0  0  0
   -0.0040   -2.0220   -9.6750 C   0  0  0  0  0  0  0  0  0  0  0  0
    6.5650   -4.0130    2.2200 C   0  0  0  0  0  0  0  0  0  0  0  0
   -9.3140    3.7670    1.1020 H   0  0  0  0  0  0  0  0  0  0  0  0
  -10.0670    5.9200    1.8800 H   0  0  0  0  0  0  0  0  0  0  0  0
   -6.0820    8.0940   -0.0910 H   0  0  0  0  0  0  0  0  0  0  0  0
   -8.6240    1.5740    0.4170 H   0  0  0  0  0  0  0  0  0  0  0  0
   -7.0170    0.0580   -0.6550 H   0  0  0  0  0  0  0  0  0  0  0  0
   -4.9290    0.9650   -1.6440 H   0  0  0  0  0  0  0  0  0  0  0  0
  -10.8330    8.1090    2.7360 H   0  0  0  0  0  0  0  0  0  0  0  0
  -10.4660   10.5300    3.0150 H   0  0  0  0  0  0  0  0  0  0  0  0
   -8.4500   11.6040    2.0490 H   0  0  0  0  0  0  0  0  0  0  0  0
   -6.8080   10.2600    0.7990 H   0  0  0  0  0  0  0  0  0  0  0  0
   -4.1240    6.1330   -0.4790 H   0  0  0  0  0  0  0  0  0  0  0  0
    7.2750    5.9880    1.1680 H   0  0  0  0  0  0  0  0  0  0  0  0
    7.1830    6.2920   -1.2950 H   0  0  0  0  0  0  0  0  0  0  0  0
    0.4840    4.3190   -2.5510 H   0  0  0  0  0  0  0  0  0  0  0  0
    5.3190    5.1020    2.3760 H   0  0  0  0  0  0  0  0  0  0  0  0
    5.1310    5.7220   -2.5370 H   0  0  0  0  0  0  0  0  0  0  0  0
    3.0140    4.3130    2.3530 H   0  0  0  0  0  0  0  0  0  0  0  0
    2.7790    4.9510   -2.5290 H   0  0  0  0  0  0  0  0  0  0  0  0
   -4.0250    3.1530    1.0450 H   0  0  0  0  0  0  0  0  0  0  0  0
   -1.9120    3.8850   -2.6030 H   0  0  0  0  0  0  0  0  0  0  0  0
    0.1330    1.6800    2.1500 H   0  0  0  0  0  0  0  0  0  0  0  0
   -0.5810    2.6660    4.3730 H   0  0  0  0  0  0  0  0  0  0  0  0
   -0.1270    4.2380    3.7680 H   0  0  0  0  0  0  0  0  0  0  0  0
    2.1450    3.1010    3.8840 H   0  0  0  0  0  0  0  0  0  0  0  0
    2.6530    2.1380    2.5080 H   0  0  0  0  0  0  0  0  0  0  0  0
    2.8470    0.8310    4.4630 H   0  0  0  0  0  0  0  0  0  0  0  0
    1.2070    1.1780    4.9780 H   0  0  0  0  0  0  0  0  0  0  0  0
   -2.9150    2.5170    4.5300 H   0  0  0  0  0  0  0  0  0  0  0  0
   -3.9540    2.6280    3.1360 H   0  0  0  0  0  0  0  0  0  0  0  0
   -3.4550    5.0100    2.8080 H   0  0  0  0  0  0  0  0  0  0  0  0
   -2.4740    4.9500    4.2770 H   0  0  0  0  0  0  0  0  0  0  0  0
   -1.7970    5.6120    2.7830 H   0  0  0  0  0  0  0  0  0  0  0  0
   -1.7140    0.6070    3.5570 H   0  0  0  0  0  0  0  0  0  0  0  0
   -2.6490    0.7460    2.0470 H   0  0  0  0  0  0  0  0  0  0  0  0
   -3.4500    0.3130    3.5600 H   0  0  0  0  0  0  0  0  0  0  0  0
   -1.8850   -6.0480   -1.2800 H   0  0  0  0  0  0  0  0  0  0  0  0
    3.8330   -2.4370    2.9120 H   0  0  0  0  0  0  0  0  0  0  0  0
   -0.3390  -11.1470    0.0620 H   0  0  0  0  0  0  0  0  0  0  0  0
   -2.3750  -11.8450   -1.0620 H   0  0  0  0  0  0  0  0  0  0  0  0
   -3.3070   -7.7700   -1.9640 H   0  0  0  0  0  0  0  0  0  0  0  0
    2.1560   -7.8470    2.8830 H   0  0  0  0  0  0  0  0  0  0  0  0
    3.4830   -7.7090    1.6740 H   0  0  0  0  0  0  0  0  0  0  0  0
    2.8930   -5.9210    4.0700 H   0  0  0  0  0  0  0  0  0  0  0  0
    4.6690   -5.6420    1.6210 H   0  0  0  0  0  0  0  0  0  0  0  0
   -0.7490   -4.2510   -1.9880 H   0  0  0  0  0  0  0  0  0  0  0  0
   -1.8130   -3.9020   -0.6090 H   0  0  0  0  0  0  0  0  0  0  0  0
   -1.0720   -1.8060   -1.5370 H   0  0  0  0  0  0  0  0  0  0  0  0
    0.6000   -2.3450   -1.6290 H   0  0  0  0  0  0  0  0  0  0  0  0
    0.2960   -0.8360    0.2580 H   0  0  0  0  0  0  0  0  0  0  0  0
    0.2800   -0.2010    3.1930 H   0  0  0  0  0  0  0  0  0  0  0  0
    1.4290   -1.1050    4.1640 H   0  0  0  0  0  0  0  0  0  0  0  0
   -4.5770   -9.5230   -2.5530 H   0  0  0  0  0  0  0  0  0  0  0  0
    1.0590  -10.0970    2.0540 H   0  0  0  0  0  0  0  0  0  0  0  0
    4.0930   -8.3200    4.0890 H   0  0  0  0  0  0  0  0  0  0  0  0
    5.4920   -7.4190    3.5410 H   0  0  0  0  0  0  0  0  0  0  0  0
    5.1790   -3.6970    3.8900 H   0  0  0  0  0  0  0  0  0  0  0  0
    6.0150   -5.2220    3.8290 H   0  0  0  0  0  0  0  0  0  0  0  0
    5.2370   -5.9600    5.6510 H   0  0  0  0  0  0  0  0  0  0  0  0
    5.4270   -7.6810    6.0060 H   0  0  0  0  0  0  0  0  0  0  0  0
    3.8270   -6.9340    6.0920 H   0  0  0  0  0  0  0  0  0  0  0  0
   -1.6850   -2.8810    1.4420 H   0  0  0  0  0  0  0  0  0  0  0  0
   -2.1160   -1.3140    0.7380 H   0  0  0  0  0  0  0  0  0  0  0  0
   -1.1370   -1.4090    2.2080 H   0  0  0  0  0  0  0  0  0  0  0  0
    3.1990   -2.8520   -4.0830 H   0  0  0  0  0  0  0  0  0  0  0  0
    4.0670    1.8510   -2.9680 H   0  0  0  0  0  0  0  0  0  0  0  0
    5.3650   -4.2220   -0.2360 H   0  0  0  0  0  0  0  0  0  0  0  0
    6.9180   -1.3010    2.5320 H   0  0  0  0  0  0  0  0  0  0  0  0
    6.2260    0.4850    0.9720 H   0  0  0  0  0  0  0  0  0  0  0  0
    2.1290   -3.2800   -5.7780 H   0  0  0  0  0  0  0  0  0  0  0  0
    0.9430   -3.7750   -7.8060 H   0  0  0  0  0  0  0  0  0  0  0  0
    0.6370    0.3740   -8.7120 H   0  0  0  0  0  0  0  0  0  0  0  0
    0.6940    2.2630   -8.0200 H   0  0  0  0  0  0  0  0  0  0  0  0
    2.6000    3.4830   -5.5430 H   0  0  0  0  0  0  0  0  0  0  0  0
   -0.7300   -1.2410   -9.9220 H   0  0  0  0  0  0  0  0  0  0  0  0
    0.7310   -2.0920  -10.4830 H   0  0  0  0  0  0  0  0  0  0  0  0
   -0.5510   -2.9700   -9.6140 H   0  0  0  0  0  0  0  0  0  0  0  0
    7.4310   -3.6820    2.8080 H   0  0  0  0  0  0  0  0  0  0  0  0
    6.9340   -4.8680    1.6370 H   0  0  0  0  0  0  0  0  0  0  0  0
  1  2  1  0
  1  5  2  0
  1 11  1  0
  2  6  2  0
  2 14  1  0
  3  4  2  0
  3  7  1  0
  3 15  1  0
  4  8  1  0
  4 18  1  0
  5  9  1  0
  5108  1  0
  6 10  1  0
  6 19  1  0
  7  9  2  0
  7109  1  0
  8 10  2  0
  8110  1  0
  9 10  1  0
 11 12  2  0
 11111  1  0
 12 13  1  0
 12112  1  0
 13 14  2  0
 13113  1  0
 14 42  1  0
 15 16  2  0
 15114  1  0
 16 17  1  0
 16115  1  0
 17 18  2  0
 17116  1  0
 18117  1  0
 19 20  2  0
 19118  1  0
 21 22  1  0
 21 25  2  0
 21 35  1  0
 22 26  2  0
 22 38  1  0
 23 24  2  0
 23 27  1  0
 23119  1  0
 24 28  1  0
 24120  1  0
 25 31  1  0
 25 39  1  0
 26 32  1  0
 26121  1  0
 27 33  2  0
 27122  1  0
 28 34  2  0
 28123  1  0
 29 31  2  0
 29 33  1  0
 29124  1  0
 30 32  2  0
 30 34  1  0
 30125  1  0
 31 32  1  0
 33 34  1  0
 35 36  2  0
 35 41  1  0
 36 37  1  0
 36126  1  0
 37 38  2  0
 37 42  1  0
 38127  1  0
 39 40  1  0
 39 43  1  0
 39128  1  6
 40 41  1  0
 40129  1  0
 40130  1  0
 41 45  1  1
 41 46  1  0
 43 44  1  0
 43131  1  0
 43132  1  0
 44 74  1  0
 44133  1  0
 44134  1  0
 45 47  1  0
 45135  1  0
 45136  1  0
 46137  1  0
 46138  1  0
 46139  1  0
 47140  1  0
 47141  1  0
 47142  1  0
 48 49  2  0
 48 52  1  0
 48 58  1  0
 49 53  1  0
 49 61  1  0
 50 51  1  0
 50 54  2  0
 50 62  1  0
 51 55  2  0
 51 65  1  0
 52 56  2  0
 52 66  1  0
 53 57  2  0
 53 69  1  0
 54 56  1  0
 54 76  1  0
 55 57  1  0
 55143  1  0
 56 57  1  0
 58 59  2  0
 58 68  1  0
 59 60  1  0
 59144  1  0
 60 61  2  0
 60 72  1  0
 61 71  1  0
 62 63  2  0
 62145  1  0
 63 64  1  0
 63146  1  0
 64 65  2  0
 64 75  1  0
 65147  1  0
 66 67  1  0
 66148  1  0
 66149  1  0
 67 68  1  0
 67 77  1  0
 67150  1  1
 68 78  1  0
 68151  1  6
 69 70  1  0
 69152  1  0
 69153  1  0
 70 71  1  0
 70154  1  0
 70155  1  0
 71 80  1  0
 71156  1  6
 72 73  2  0
 72 74  1  0
 74157  1  0
 74158  1  0
 75159  1  0
 76160  1  0
 77 79  1  0
 77161  1  0
 77162  1  0
 78107  1  0
 78163  1  0
 78164  1  0
 79165  1  0
 79166  1  0
 79167  1  0
 80168  1  0
 80169  1  0
 80170  1  0
 81 82  1  0
 81 85  2  0
 81 91  1  0
 82 86  2  0
 82 94  1  0
 83 84  2  0
 83 87  1  0
 83 95  1  0
 84 88  1  0
 84 98  1  0
 85 89  1  0
 85171  1  0
 86 90  1  0
 86172  1  0
 87 89  2  0
 88 90  2  0
 89 90  1  0
 91 92  2  0
 91 99  1  0
 92 93  1  0
 92102  1  0
 93 94  2  0
 93103  1  0
 94105  1  0
 95 96  2  0
 95173  1  0
 96 97  1  0
 96107  1  0
 97 98  2  0
 97174  1  0
 98175  1  0
 99100  2  0
 99176  1  0
100101  1  0
100177  1  0
101102  2  0
101106  1  0
102178  1  0
103104  2  0
103179  1  0
105180  1  0
106181  1  0
106182  1  0
106183  1  0
107184  1  0
107185  1  0
M  END
