
     RDKit          3D

189208  0  0  0  0  0  0  0  0999 V2000
    5.6140    2.0120    3.4000 C   0  0  0  0  0  0  0  0  0  0  0  0
    2.4320   -3.2030    6.2920 C   0  0  0  0  0  0  0  0  0  0  0  0
    4.5560    1.4730    2.5910 C   0  0  0  0  0  0  0  0  0  0  0  0
    1.9230   -2.9170    4.9950 C   0  0  0  0  0  0  0  0  0  0  0  0
    5.9200    1.4490    4.6900 C   0  0  0  0  0  0  0  0  0  0  0  0
    3.4570   -2.4300    6.8850 C   0  0  0  0  0  0  0  0  0  0  0  0
    3.8200    0.3730    3.0730 C   0  0  0  0  0  0  0  0  0  0  0  0
    2.4810   -1.8340    4.2760 C   0  0  0  0  0  0  0  0  0  0  0  0
    5.1040   -0.3880    6.4800 C   0  0  1  0  0  0  0  0  0  0  0  0
    5.1460    0.3890    5.1620 C   0  0  0  0  0  0  0  0  0  0  0  0
    3.9870   -1.3750    6.1730 C   0  0  0  0  0  0  0  0  0  0  0  0
    4.1470   -0.0950    4.3410 C   0  0  0  0  0  0  0  0  0  0  0  0
    3.4910   -1.1230    4.9150 C   0  0  0  0  0  0  0  0  0  0  0  0
    2.7940   -0.2740    2.3560 C   0  0  0  0  0  0  0  0  0  0  0  0
    2.1330   -1.4060    2.9640 C   0  0  0  0  0  0  0  0  0  0  0  0
    6.3370    3.1080    2.8870 C   0  0  0  0  0  0  0  0  0  0  0  0
    6.0400    3.6160    1.6150 C   0  0  0  0  0  0  0  0  0  0  0  0
    4.9910    3.0890    0.8610 C   0  0  0  0  0  0  0  0  0  0  0  0
    4.2090    2.0150    1.3280 C   0  0  0  0  0  0  0  0  0  0  0  0
    3.1050    1.4570    0.6160 C   0  0  0  0  0  0  0  0  0  0  0  0
    2.4870    0.2780    1.0990 C   0  0  0  0  0  0  0  0  0  0  0  0
    7.0840    2.0050    5.4880 C   0  0  2  0  0  0  0  0  0  0  0  0
    7.2760    3.4970    5.1760 C   0  0  0  0  0  0  0  0  0  0  0  0
    7.4620    3.7270    3.6790 C   0  0  0  0  0  0  0  0  0  0  0  0
    0.8430   -3.7830    4.3120 C   0  0  2  0  0  0  0  0  0  0  0  0
    0.1290   -2.9230    3.2130 C   0  0  1  0  0  0  0  0  0  0  0  0
    1.0970   -2.2300    2.2390 C   0  0  0  0  0  0  0  0  0  0  0  0
    8.4300    1.2820    5.3080 C   0  0  0  0  0  0  0  0  0  0  0  0
    9.3950    1.6170    6.0070 O   0  0  0  0  0  0  0  0  0  0  0  0
    8.5650    0.1450    4.3130 C   0  0  0  0  0  0  0  0  0  0  0  0
   -0.8790   -3.7130    2.3730 C   0  0  0  0  0  0  0  0  0  0  0  0
   -0.5130   -4.5110    1.5150 O   0  0  0  0  0  0  0  0  0  0  0  0
   -2.3480   -3.3850    2.5820 C   0  0  0  0  0  0  0  0  0  0  0  0
    6.3790   -1.1160    6.8750 C   0  0  0  0  0  0  0  0  0  0  0  0
   -0.2230   -4.2510    5.3310 C   0  0  0  0  0  0  0  0  0  0  0  0
   -3.2620   -4.5170    2.1510 C   0  0  0  0  0  0  0  0  0  0  0  0
    2.5640    2.1070   -0.6590 C   0  0  0  0  0  0  0  0  0  0  0  0
    1.5500   -5.0270    3.7380 C   0  0  0  0  0  0  0  0  0  0  0  0
   10.2070    1.1490    1.3650 C   0  0  0  0  0  0  0  0  0  0  0  0
    9.8250    0.0470    2.1370 C   0  0  0  0  0  0  0  0  0  0  0  0
    9.2950   -1.0790    1.4910 C   0  0  0  0  0  0  0  0  0  0  0  0
    9.1330   -1.1060    0.0910 C   0  0  0  0  0  0  0  0  0  0  0  0
    9.5310    0.0030   -0.6840 C   0  0  0  0  0  0  0  0  0  0  0  0
   10.0640    1.1240   -0.0230 C   0  0  0  0  0  0  0  0  0  0  0  0
    8.5360   -2.3090   -0.5380 C   0  0  0  0  0  0  0  0  0  0  0  0
    8.2870   -3.3130    0.1260 O   0  0  0  0  0  0  0  0  0  0  0  0
    8.9280   -2.1300    2.2930 O   0  0  0  0  0  0  0  0  0  0  0  0
    9.9410    0.1120    3.6440 C   0  0  0  0  0  0  0  0  0  0  0  0
    9.4060    0.0670   -2.1860 C   0  0  0  0  0  0  0  0  0  0  0  0
    7.7200    0.4660   -2.7180 S   0  0  0  0  0  0  0  0  0  0  0  0
   -3.3870    8.5310   -3.7870 C   0  0  0  0  0  0  0  0  0  0  0  0
   -4.0220    8.5560   -2.5370 C   0  0  0  0  0  0  0  0  0  0  0  0
   -0.7600    4.7130   -1.9830 C   0  0  0  0  0  0  0  0  0  0  0  0
   -1.5870    4.8250   -0.8480 C   0  0  0  0  0  0  0  0  0  0  0  0
   -2.3710    7.5810   -3.9800 C   0  0  0  0  0  0  0  0  0  0  0  0
   -3.6830    7.7150   -1.5460 N   0  0  0  0  0  0  0  0  0  0  0  0
   -1.0400    5.6280   -3.0510 C   0  0  0  0  0  0  0  0  0  0  0  0
   -2.5200    5.8690   -0.7470 C   0  0  0  0  0  0  0  0  0  0  0  0
   -2.0180    6.6650   -2.9570 C   0  0  0  0  0  0  0  0  0  0  0  0
   -2.7380    6.7860   -1.7590 C   0  0  0  0  0  0  0  0  0  0  0  0
   -3.7980    9.4150   -4.8050 C   0  0  0  0  0  0  0  0  0  0  0  0
   -4.8280   10.3280   -4.5720 C   0  0  0  0  0  0  0  0  0  0  0  0
   -5.4530   10.3570   -3.3320 C   0  0  0  0  0  0  0  0  0  0  0  0
   -5.0320    9.4850   -2.3200 C   0  0  0  0  0  0  0  0  0  0  0  0
    0.2420    3.6860   -1.9390 C   0  0  0  0  0  0  0  0  0  0  0  0
    0.3030    2.7480   -0.8930 C   0  0  0  0  0  0  0  0  0  0  0  0
   -0.6260    2.8050    0.1490 C   0  0  0  0  0  0  0  0  0  0  0  0
   -1.5160    3.8840    0.1890 C   0  0  0  0  0  0  0  0  0  0  0  0
   -0.3710    5.4110   -4.3460 C   0  0  0  0  0  0  0  0  0  0  0  0
    0.2920    6.2910   -4.8780 O   0  0  0  0  0  0  0  0  0  0  0  0
    1.2010    3.5870   -2.9190 O   0  0  0  0  0  0  0  0  0  0  0  0
    1.2010    1.7110   -0.9160 O   0  0  0  0  0  0  0  0  0  0  0  0
   -0.6970    1.7580    1.2360 C   0  0  0  0  0  0  0  0  0  0  0  0
   -4.6170   -0.9440   -0.7190 C   0  0  0  0  0  0  0  0  0  0  0  0
   -3.4070   -1.4440   -1.2320 C   0  0  0  0  0  0  0  0  0  0  0  0
   -7.0560   -4.5120   -3.3740 C   0  0  0  0  0  0  0  0  0  0  0  0
   -5.8010   -5.0940   -3.6230 C   0  0  0  0  0  0  0  0  0  0  0  0
   -5.8530   -1.5460   -1.1200 C   0  0  0  0  0  0  0  0  0  0  0  0
   -3.4470   -2.4760   -2.2050 C   0  0  0  0  0  0  0  0  0  0  0  0
   -7.1070   -3.2740   -2.6470 C   0  0  0  0  0  0  0  0  0  0  0  0
   -4.6630   -4.3950   -3.1810 C   0  0  0  0  0  0  0  0  0  0  0  0
   -5.9180   -2.6380   -2.0760 C   0  0  0  0  0  0  0  0  0  0  0  0
   -4.6740   -3.1590   -2.4940 C   0  0  0  0  0  0  0  0  0  0  0  0
   -4.5570    0.1400    0.2030 C   0  0  0  0  0  0  0  0  0  0  0  0
   -3.3320    0.6550    0.6550 C   0  0  0  0  0  0  0  0  0  0  0  0
   -2.1380    0.1010    0.2260 C   0  0  0  0  0  0  0  0  0  0  0  0
   -2.1750   -0.9370   -0.7200 C   0  0  0  0  0  0  0  0  0  0  0  0
   -8.2220   -5.1850   -3.8490 C   0  0  0  0  0  0  0  0  0  0  0  0
   -8.1090   -6.4350   -4.4730 C   0  0  0  0  0  0  0  0  0  0  0  0
   -6.8690   -6.9950   -4.7240 C   0  0  0  0  0  0  0  0  0  0  0  0
   -5.7070   -6.3280   -4.3240 C   0  0  0  0  0  0  0  0  0  0  0  0
   -7.1140   -1.0630   -0.4140 C   0  0  0  0  0  0  0  0  0  0  0  0
   -6.8660   -0.3360    0.9040 C   0  0  0  0  0  0  0  0  0  0  0  0
   -5.8290    0.7640    0.7470 C   0  0  2  0  0  0  0  0  0  0  0  0
   -2.1460   -2.8170   -2.9730 C   0  0  2  0  0  0  0  0  0  0  0  0
   -0.9630   -1.8920   -2.6280 C   0  0  0  0  0  0  0  0  0  0  0  0
   -0.8930   -1.6080   -1.1480 C   0  0  0  0  0  0  0  0  0  0  0  0
   -8.4790   -2.6250   -2.5300 C   0  0  0  0  0  0  0  0  0  0  0  0
   -9.4430   -3.0360   -3.6320 C   0  0  0  0  0  0  0  0  0  0  0  0
   -9.5750   -4.5460   -3.6610 C   0  0  0  0  0  0  0  0  0  0  0  0
   -0.9100    0.4460    0.7140 O   0  0  0  0  0  0  0  0  0  0  0  0
   -9.1880   -7.1680   -4.8770 O   0  0  0  0  0  0  0  0  0  0  0  0
   -2.2720   -2.8260   -4.5250 C   0  0  0  0  0  0  0  0  0  0  0  0
   -2.8600   -1.5610   -5.1440 C   0  0  0  0  0  0  0  0  0  0  0  0
   -6.2990    1.9160   -0.1440 C   0  0  0  0  0  0  0  0  0  0  0  0
   -4.3820   -6.9680   -4.6580 C   0  0  0  0  0  0  0  0  0  0  0  0
    2.0690   -4.0600    6.8520 H   0  0  0  0  0  0  0  0  0  0  0  0
    3.8290   -2.6860    7.8710 H   0  0  0  0  0  0  0  0  0  0  0  0
    4.7730    0.2860    7.2770 H   0  0  0  0  0  0  0  0  0  0  0  0
    6.6200    4.4410    1.2080 H   0  0  0  0  0  0  0  0  0  0  0  0
    4.8090    3.5280   -0.1210 H   0  0  0  0  0  0  0  0  0  0  0  0
    1.7060   -0.1770    0.4960 H   0  0  0  0  0  0  0  0  0  0  0  0
    6.8340    1.9220    6.5540 H   0  0  0  0  0  0  0  0  0  0  0  0
    6.3960    4.0560    5.5200 H   0  0  0  0  0  0  0  0  0  0  0  0
    8.1370    3.9050    5.7190 H   0  0  0  0  0  0  0  0  0  0  0  0
    8.4140    3.3030    3.3360 H   0  0  0  0  0  0  0  0  0  0  0  0
    7.4980    4.8080    3.4930 H   0  0  0  0  0  0  0  0  0  0  0  0
   -0.4310   -2.1240    3.7220 H   0  0  0  0  0  0  0  0  0  0  0  0
    1.6120   -2.9550    1.5970 H   0  0  0  0  0  0  0  0  0  0  0  0
    0.5000   -1.5890    1.5840 H   0  0  0  0  0  0  0  0  0  0  0  0
    7.7850    0.2290    3.5540 H   0  0  0  0  0  0  0  0  0  0  0  0
    8.3990   -0.7870    4.8570 H   0  0  0  0  0  0  0  0  0  0  0  0
   -2.5690   -2.4840    1.9980 H   0  0  0  0  0  0  0  0  0  0  0  0
   -2.5240   -3.1610    3.6410 H   0  0  0  0  0  0  0  0  0  0  0  0
    6.2270   -1.7010    7.7910 H   0  0  0  0  0  0  0  0  0  0  0  0
    7.1960   -0.4180    7.0740 H   0  0  0  0  0  0  0  0  0  0  0  0
    6.7060   -1.8120    6.0960 H   0  0  0  0  0  0  0  0  0  0  0  0
   -0.6940   -3.3940    5.8320 H   0  0  0  0  0  0  0  0  0  0  0  0
    0.1950   -4.8990    6.1080 H   0  0  0  0  0  0  0  0  0  0  0  0
   -1.0160   -4.8310    4.8450 H   0  0  0  0  0  0  0  0  0  0  0  0
   -3.0900   -4.8010    1.1060 H   0  0  0  0  0  0  0  0  0  0  0  0
   -4.3120   -4.2230    2.2570 H   0  0  0  0  0  0  0  0  0  0  0  0
   -3.0910   -5.4040    2.7700 H   0  0  0  0  0  0  0  0  0  0  0  0
    2.6360    3.1960   -0.5710 H   0  0  0  0  0  0  0  0  0  0  0  0
    3.1720    1.7800   -1.5100 H   0  0  0  0  0  0  0  0  0  0  0  0
    2.2820   -4.7620    2.9670 H   0  0  0  0  0  0  0  0  0  0  0  0
    0.8360   -5.7340    3.3010 H   0  0  0  0  0  0  0  0  0  0  0  0
    2.0940   -5.5750    4.5170 H   0  0  0  0  0  0  0  0  0  0  0  0
   10.6180    2.0350    1.8430 H   0  0  0  0  0  0  0  0  0  0  0  0
   10.3660    2.0080   -0.5860 H   0  0  0  0  0  0  0  0  0  0  0  0
    8.3230   -2.2900   -1.6160 H   0  0  0  0  0  0  0  0  0  0  0  0
    8.5880   -2.8550    1.7180 H   0  0  0  0  0  0  0  0  0  0  0  0
   10.5060   -0.7650    3.9900 H   0  0  0  0  0  0  0  0  0  0  0  0
   10.5520    0.9810    3.9200 H   0  0  0  0  0  0  0  0  0  0  0  0
    9.7380   -0.8720   -2.6410 H   0  0  0  0  0  0  0  0  0  0  0  0
   10.0720    0.8390   -2.5880 H   0  0  0  0  0  0  0  0  0  0  0  0
    7.9760    0.4920   -4.0330 H   0  0  0  0  0  0  0  0  0  0  0  0
   -1.8650    7.5480   -4.9440 H   0  0  0  0  0  0  0  0  0  0  0  0
   -3.1360    5.9700    0.1460 H   0  0  0  0  0  0  0  0  0  0  0  0
   -3.3100    9.4010   -5.7760 H   0  0  0  0  0  0  0  0  0  0  0  0
   -5.1480   11.0040   -5.3630 H   0  0  0  0  0  0  0  0  0  0  0  0
   -6.2550   11.0630   -3.1380 H   0  0  0  0  0  0  0  0  0  0  0  0
   -5.5220    9.5140   -1.3520 H   0  0  0  0  0  0  0  0  0  0  0  0
   -2.2040    3.9690    1.0300 H   0  0  0  0  0  0  0  0  0  0  0  0
   -0.4730    4.4010   -4.7810 H   0  0  0  0  0  0  0  0  0  0  0  0
    1.5230    4.4800   -3.1320 H   0  0  0  0  0  0  0  0  0  0  0  0
    0.2590    1.7520    1.7680 H   0  0  0  0  0  0  0  0  0  0  0  0
   -1.4340    2.0040    2.0080 H   0  0  0  0  0  0  0  0  0  0  0  0
   -3.7000   -4.8730   -3.3440 H   0  0  0  0  0  0  0  0  0  0  0  0
   -3.3510    1.4600    1.3800 H   0  0  0  0  0  0  0  0  0  0  0  0
   -6.8170   -7.9470   -5.2410 H   0  0  0  0  0  0  0  0  0  0  0  0
   -7.7380   -1.9230   -0.1490 H   0  0  0  0  0  0  0  0  0  0  0  0
   -7.6750   -0.4030   -1.0810 H   0  0  0  0  0  0  0  0  0  0  0  0
   -6.5200   -1.0640    1.6520 H   0  0  0  0  0  0  0  0  0  0  0  0
   -7.8110    0.0730    1.2840 H   0  0  0  0  0  0  0  0  0  0  0  0
   -5.6350    1.1690    1.7490 H   0  0  0  0  0  0  0  0  0  0  0  0
   -1.8500   -3.8230   -2.6440 H   0  0  0  0  0  0  0  0  0  0  0  0
   -1.0420   -0.9330   -3.1570 H   0  0  0  0  0  0  0  0  0  0  0  0
   -0.0250   -2.3540   -2.9620 H   0  0  0  0  0  0  0  0  0  0  0  0
   -0.7580   -2.5310   -0.5720 H   0  0  0  0  0  0  0  0  0  0  0  0
   -0.0170   -0.9780   -0.9660 H   0  0  0  0  0  0  0  0  0  0  0  0
   -8.9230   -2.8860   -1.5660 H   0  0  0  0  0  0  0  0  0  0  0  0
   -8.3820   -1.5420   -2.6200 H   0  0  0  0  0  0  0  0  0  0  0  0
   -9.0820   -2.6700   -4.6020 H   0  0  0  0  0  0  0  0  0  0  0  0
  -10.4230   -2.5760   -3.4600 H   0  0  0  0  0  0  0  0  0  0  0  0
  -10.0180   -4.9140   -2.7270 H   0  0  0  0  0  0  0  0  0  0  0  0
  -10.2510   -4.8090   -4.4850 H   0  0  0  0  0  0  0  0  0  0  0  0
   -9.9630   -6.8910   -4.3610 H   0  0  0  0  0  0  0  0  0  0  0  0
   -1.2800   -2.9960   -4.9640 H   0  0  0  0  0  0  0  0  0  0  0  0
   -2.8750   -3.6700   -4.8690 H   0  0  0  0  0  0  0  0  0  0  0  0
   -2.2060   -0.6960   -5.0030 H   0  0  0  0  0  0  0  0  0  0  0  0
   -3.8460   -1.3230   -4.7330 H   0  0  0  0  0  0  0  0  0  0  0  0
   -2.9840   -1.7020   -6.2250 H   0  0  0  0  0  0  0  0  0  0  0  0
   -5.5550    2.7180   -0.1740 H   0  0  0  0  0  0  0  0  0  0  0  0
   -6.4710    1.5960   -1.1790 H   0  0  0  0  0  0  0  0  0  0  0  0
   -7.2330    2.3420    0.2380 H   0  0  0  0  0  0  0  0  0  0  0  0
   -3.8820   -7.3120   -3.7470 H   0  0  0  0  0  0  0  0  0  0  0  0
   -3.7370   -6.2620   -5.1910 H   0  0  0  0  0  0  0  0  0  0  0  0
   -4.5050   -7.8360   -5.3170 H   0  0  0  0  0  0  0  0  0  0  0  0
  1  3  2  0
  1  5  1  0
  1 16  1  0
  2  4  2  0
  2  6  1  0
  2107  1  0
  3  7  1  0
  3 19  1  0
  4  8  1  0
  4 25  1  0
  5 10  2  0
  5 22  1  0
  6 11  2  0
  6108  1  0
  7 12  2  0
  7 14  1  0
  8 13  2  0
  8 15  1  0
  9 10  1  0
  9 11  1  0
  9 34  1  0
  9109  1  1
 10 12  1  0
 11 13  1  0
 12 13  1  0
 14 15  2  0
 14 21  1  0
 15 27  1  0
 16 17  2  0
 16 24  1  0
 17 18  1  0
 17110  1  0
 18 19  2  0
 18111  1  0
 19 20  1  0
 20 21  2  0
 20 37  1  0
 21112  1  0
 22 23  1  0
 22 28  1  0
 22113  1  1
 23 24  1  0
 23114  1  0
 23115  1  0
 24116  1  0
 24117  1  0
 25 26  1  0
 25 35  1  1
 25 38  1  0
 26 27  1  0
 26 31  1  0
 26118  1  1
 27119  1  0
 27120  1  0
 28 29  2  0
 28 30  1  0
 30 48  1  0
 30121  1  0
 30122  1  0
 31 32  2  0
 31 33  1  0
 33 36  1  0
 33123  1  0
 33124  1  0
 34125  1  0
 34126  1  0
 34127  1  0
 35128  1  0
 35129  1  0
 35130  1  0
 36131  1  0
 36132  1  0
 36133  1  0
 37 72  1  0
 37134  1  0
 37135  1  0
 38136  1  0
 38137  1  0
 38138  1  0
 39 40  2  0
 39 44  1  0
 39139  1  0
 40 41  1  0
 40 48  1  0
 41 42  2  0
 41 47  1  0
 42 43  1  0
 42 45  1  0
 43 44  2  0
 43 49  1  0
 44140  1  0
 45 46  2  0
 45141  1  0
 47142  1  0
 48143  1  0
 48144  1  0
 49 50  1  0
 49145  1  0
 49146  1  0
 50147  1  0
 51 52  1  0
 51 55  2  0
 51 61  1  0
 52 56  2  0
 52 64  1  0
 53 54  2  0
 53 57  1  0
 53 65  1  0
 54 58  1  0
 54 68  1  0
 55 59  1  0
 55148  1  0
 56 60  1  0
 57 59  2  0
 57 69  1  0
 58 60  2  0
 58149  1  0
 59 60  1  0
 61 62  2  0
 61150  1  0
 62 63  1  0
 62151  1  0
 63 64  2  0
 63152  1  0
 64153  1  0
 65 66  2  0
 65 71  1  0
 66 67  1  0
 66 72  1  0
 67 68  2  0
 67 73  1  0
 68154  1  0
 69 70  2  0
 69155  1  0
 71156  1  0
 73101  1  0
 73157  1  0
 73158  1  0
 74 75  2  0
 74 78  1  0
 74 84  1  0
 75 79  1  0
 75 87  1  0
 76 77  1  0
 76 80  2  0
 76 88  1  0
 77 81  2  0
 77 91  1  0
 78 82  2  0
 78 92  1  0
 79 83  2  0
 79 95  1  0
 80 82  1  0
 80 98  1  0
 81 83  1  0
 81159  1  0
 82 83  1  0
 84 85  2  0
 84 94  1  0
 85 86  1  0
 85160  1  0
 86 87  2  0
 86101  1  0
 87 97  1  0
 88 89  2  0
 88100  1  0
 89 90  1  0
 89102  1  0
 90 91  2  0
 90161  1  0
 91106  1  0
 92 93  1  0
 92162  1  0
 92163  1  0
 93 94  1  0
 93164  1  0
 93165  1  0
 94105  1  0
 94166  1  1
 95 96  1  0
 95103  1  0
 95167  1  1
 96 97  1  0
 96168  1  0
 96169  1  0
 97170  1  0
 97171  1  0
 98 99  1  0
 98172  1  0
 98173  1  0
 99100  1  0
 99174  1  0
 99175  1  0
100176  1  0
100177  1  0
102178  1  0
103104  1  0
103179  1  0
103180  1  0
104181  1  0
104182  1  0
104183  1  0
105184  1  0
105185  1  0
105186  1  0
106187  1  0
106188  1  0
106189  1  0
M  END
