
     RDKit          3D

194215  0  0  0  0  0  0  0  0999 V2000
   -5.8450   -6.9440   -0.9950 C   0  0  0  0  0  0  0  0  0  0  0  0
   -6.5020   -5.9600   -0.2260 C   0  0  0  0  0  0  0  0  0  0  0  0
   -6.8300   -4.5030   -5.1200 C   0  0  0  0  0  0  0  0  0  0  0  0
   -7.5230   -3.5360   -4.4050 C   0  0  0  0  0  0  0  0  0  0  0  0
   -5.7550   -6.7880   -2.3860 C   0  0  0  0  0  0  0  0  0  0  0  0
   -7.0070   -4.8130   -0.8910 C   0  0  0  0  0  0  0  0  0  0  0  0
   -6.2400   -5.5760   -4.4470 C   0  0  0  0  0  0  0  0  0  0  0  0
   -7.6090   -3.6330   -3.0130 C   0  0  0  0  0  0  0  0  0  0  0  0
   -6.3280   -5.6890   -3.0480 C   0  0  0  0  0  0  0  0  0  0  0  0
   -6.9990   -4.6910   -2.3030 C   0  0  0  0  0  0  0  0  0  0  0  0
   -5.2730   -8.0600   -0.3570 C   0  0  0  0  0  0  0  0  0  0  0  0
   -5.3520   -8.2070    1.0330 C   0  0  0  0  0  0  0  0  0  0  0  0
   -6.0130   -7.2560    1.8020 C   0  0  0  0  0  0  0  0  0  0  0  0
   -6.5880   -6.1480    1.1760 C   0  0  0  0  0  0  0  0  0  0  0  0
   -4.7440   -9.3830    1.6870 C   0  0  0  0  0  0  0  0  0  0  0  0
   -4.2600  -10.3040    1.0430 O   0  0  0  0  0  0  0  0  0  0  0  0
   -7.4880   -3.7850   -0.0950 O   0  0  0  0  0  0  0  0  0  0  0  0
   -2.5180   -3.9130    0.7650 C   0  0  0  0  0  0  0  0  0  0  0  0
   -3.4670   -3.8510    1.7950 C   0  0  0  0  0  0  0  0  0  0  0  0
    0.8660   -5.4130    3.9350 C   0  0  0  0  0  0  0  0  0  0  0  0
   -0.0770   -5.3920    4.9600 C   0  0  0  0  0  0  0  0  0  0  0  0
   -1.2140   -4.3430    1.0470 C   0  0  0  0  0  0  0  0  0  0  0  0
   -3.0970   -4.2450    3.0920 C   0  0  0  0  0  0  0  0  0  0  0  0
    0.4880   -5.0780    2.6360 C   0  0  0  0  0  0  0  0  0  0  0  0
   -1.3950   -5.0140    4.6860 C   0  0  0  0  0  0  0  0  0  0  0  0
   -0.8310   -4.6960    2.3440 C   0  0  0  0  0  0  0  0  0  0  0  0
   -1.7860   -4.6580    3.3850 C   0  0  0  0  0  0  0  0  0  0  0  0
   -2.8770   -3.4940   -0.5210 C   0  0  0  0  0  0  0  0  0  0  0  0
   -4.1440   -2.9330   -0.8020 C   0  0  0  0  0  0  0  0  0  0  0  0
   -5.1330   -2.9700    0.2040 C   0  0  0  0  0  0  0  0  0  0  0  0
   -4.7640   -3.3970    1.4980 C   0  0  0  0  0  0  0  0  0  0  0  0
   -6.5970   -2.6460   -0.0410 C   0  0  0  0  0  0  0  0  0  0  0  0
   -0.5770   -0.1440   -2.9620 C   0  0  0  0  0  0  0  0  0  0  0  0
   -1.2520   -0.8040   -4.0030 C   0  0  0  0  0  0  0  0  0  0  0  0
    4.2520   -0.3560  -10.9460 C   0  0  0  0  0  0  0  0  0  0  0  0
    0.7790    0.2430   -3.1510 C   0  0  0  0  0  0  0  0  0  0  0  0
    5.1110   -0.0960   -9.8770 C   0  0  0  0  0  0  0  0  0  0  0  0
    2.9140   -0.6350  -10.7210 C   0  0  0  0  0  0  0  0  0  0  0  0
   -0.6340   -0.8960   -5.2710 C   0  0  0  0  0  0  0  0  0  0  0  0
    5.3740    0.2720   -7.4570 C   0  0  0  0  0  0  0  0  0  0  0  0
    4.8260    0.2980   -6.1650 C   0  0  0  0  0  0  0  0  0  0  0  0
    0.9960   -0.9650   -9.1630 C   0  0  0  0  0  0  0  0  0  0  0  0
    0.4620   -0.9950   -7.8590 C   0  0  0  0  0  0  0  0  0  0  0  0
    2.8860    0.0090   -4.5940 C   0  0  0  0  0  0  0  0  0  0  0  0
    4.5680   -0.0410   -8.5650 C   0  0  0  0  0  0  0  0  0  0  0  0
    2.3490   -0.6410   -9.4260 C   0  0  0  0  0  0  0  0  0  0  0  0
    1.4740   -0.0520   -4.3800 C   0  0  0  0  0  0  0  0  0  0  0  0
    3.4680    0.0250   -5.8990 C   0  0  0  0  0  0  0  0  0  0  0  0
    0.7100   -0.4880   -5.4810 C   0  0  0  0  0  0  0  0  0  0  0  0
    1.2730   -0.5800   -6.7830 C   0  0  0  0  0  0  0  0  0  0  0  0
    3.1840   -0.3130   -8.3330 C   0  0  0  0  0  0  0  0  0  0  0  0
    2.6400   -0.2600   -7.0070 C   0  0  0  0  0  0  0  0  0  0  0  0
   -1.3790   -1.4550   -6.3180 C   0  0  0  0  0  0  0  0  0  0  0  0
   -0.8360   -1.4620   -7.5850 C   0  0  0  0  0  0  0  0  0  0  0  0
   -1.2840    0.0930   -1.7620 C   0  0  0  0  0  0  0  0  0  0  0  0
   -2.5630   -0.4530   -1.5700 C   0  0  0  0  0  0  0  0  0  0  0  0
   -3.1360   -1.3170   -2.5140 C   0  0  0  0  0  0  0  0  0  0  0  0
   -2.5380   -1.3710   -3.7980 C   0  0  0  0  0  0  0  0  0  0  0  0
   -3.1360   -1.9490   -4.9220 C   0  0  0  0  0  0  0  0  0  0  0  0
   -2.6030   -1.9700   -6.1630 N   0  0  0  0  0  0  0  0  0  0  0  0
    1.4360    1.0680   -2.0390 C   0  0  0  0  0  0  0  0  0  0  0  0
    0.8840    0.6630   -0.6720 C   0  0  2  0  0  0  0  0  0  0  0  0
   -0.6440    0.8680   -0.6170 C   0  0  1  0  0  0  0  0  0  0  0  0
    6.5990    0.1730  -10.1260 C   0  0  1  0  0  0  0  0  0  0  0  0
    7.4050   -0.1220   -8.8480 C   0  0  0  0  0  0  0  0  0  0  0  0
    6.8420    0.6110   -7.6270 C   0  0  1  0  0  0  0  0  0  0  0  0
    3.7100   -0.5610   -3.4650 C   0  0  0  0  0  0  0  0  0  0  0  0
    3.3250   -1.6230   -2.9670 O   0  0  0  0  0  0  0  0  0  0  0  0
    4.9720    0.1190   -2.9640 C   0  0  0  0  0  0  0  0  0  0  0  0
    2.1860   -0.9260  -11.8480 O   0  0  0  0  0  0  0  0  0  0  0  0
   -3.1960   -0.1010   -0.4050 O   0  0  0  0  0  0  0  0  0  0  0  0
    0.1950   -1.2370  -10.2570 O   0  0  0  0  0  0  0  0  0  0  0  0
    5.2130   -0.1610   -1.4780 C   0  0  0  0  0  0  0  0  0  0  0  0
    6.5620    0.3590   -1.0110 C   0  0  0  0  0  0  0  0  0  0  0  0
    7.2270   -0.6290  -11.2960 C   0  0  0  0  0  0  0  0  0  0  0  0
    1.6290    1.2320    0.5430 C   0  0  0  0  0  0  0  0  0  0  0  0
    7.3420    0.1890  -12.5800 C   0  0  0  0  0  0  0  0  0  0  0  0
    7.0370    2.1290   -7.7150 C   0  0  0  0  0  0  0  0  0  0  0  0
   -1.1350    2.3180   -0.6290 C   0  0  0  0  0  0  0  0  0  0  0  0
   -4.3230   -2.2180   -2.1420 C   0  0  0  0  0  0  0  0  0  0  0  0
   -1.2550    4.0380    8.4320 C   0  0  0  0  0  0  0  0  0  0  0  0
   -0.3300    3.1140    8.9780 C   0  0  0  0  0  0  0  0  0  0  0  0
    1.2450    3.7370    4.1820 C   0  0  0  0  0  0  0  0  0  0  0  0
    2.2950    3.1100    4.8620 C   0  0  0  0  0  0  0  0  0  0  0  0
   -0.9400    4.7130    7.2050 C   0  0  0  0  0  0  0  0  0  0  0  0
    0.8530    2.8630    8.2580 C   0  0  0  0  0  0  0  0  0  0  0  0
    0.1920    4.2990    4.9420 C   0  0  0  0  0  0  0  0  0  0  0  0
    2.1790    2.9110    6.2410 C   0  0  0  0  0  0  0  0  0  0  0  0
    0.0840    4.1700    6.3590 C   0  0  0  0  0  0  0  0  0  0  0  0
    1.0470    3.3390    6.9570 C   0  0  0  0  0  0  0  0  0  0  0  0
   -2.4900    4.2790    9.1050 C   0  0  0  0  0  0  0  0  0  0  0  0
   -2.7700    3.6180   10.3300 C   0  0  0  0  0  0  0  0  0  0  0  0
   -1.8480    2.7230   10.8650 C   0  0  0  0  0  0  0  0  0  0  0  0
   -0.6450    2.4730   10.2030 C   0  0  0  0  0  0  0  0  0  0  0  0
    1.2410    3.7150    2.7720 C   0  0  0  0  0  0  0  0  0  0  0  0
    2.2710    3.0860    2.0420 C   0  0  0  0  0  0  0  0  0  0  0  0
    3.3880    2.6110    2.7460 C   0  0  0  0  0  0  0  0  0  0  0  0
    3.3900    2.6120    4.1450 C   0  0  0  0  0  0  0  0  0  0  0  0
   -3.4820    5.1440    8.5680 C   0  0  0  0  0  0  0  0  0  0  0  0
   -4.6780    5.3590    9.2770 C   0  0  0  0  0  0  0  0  0  0  0  0
   -4.9190    4.7230   10.4930 C   0  0  0  0  0  0  0  0  0  0  0  0
   -3.9740    3.8520   11.0110 C   0  0  0  0  0  0  0  0  0  0  0  0
   -1.6940    6.0850    6.9910 C   0  0  2  0  0  0  0  0  0  0  0  0
   -3.2250    5.7550    7.1840 C   0  0  2  0  0  0  0  0  0  0  0  0
    4.5660    2.0320    2.0560 C   0  0  0  0  0  0  0  0  0  0  0  0
    5.4440    1.4230    2.6550 O   0  0  0  0  0  0  0  0  0  0  0  0
    0.2630    1.4930   10.8500 C   0  0  0  0  0  0  0  0  0  0  0  0
   -0.1700    0.6180   11.6070 O   0  0  0  0  0  0  0  0  0  0  0  0
   -4.1810    6.8970    6.8200 C   0  0  0  0  0  0  0  0  0  0  0  0
   -1.4040    6.8070    5.6280 C   0  0  0  0  0  0  0  0  0  0  0  0
   -1.6030    8.3220    5.5240 C   0  0  0  0  0  0  0  0  0  0  0  0
   -1.1680    7.0490    8.1060 C   0  0  0  0  0  0  0  0  0  0  0  0
    2.0050    2.7230    0.5890 C   0  0  0  0  0  0  0  0  0  0  0  0
   -6.7620   -4.4390   -6.2040 H   0  0  0  0  0  0  0  0  0  0  0  0
   -8.0120   -2.7160   -4.9270 H   0  0  0  0  0  0  0  0  0  0  0  0
   -5.2340   -7.5480   -2.9720 H   0  0  0  0  0  0  0  0  0  0  0  0
   -5.7120   -6.3280   -5.0280 H   0  0  0  0  0  0  0  0  0  0  0  0
   -8.1810   -2.8750   -2.4800 H   0  0  0  0  0  0  0  0  0  0  0  0
   -4.7580   -8.8230   -0.9400 H   0  0  0  0  0  0  0  0  0  0  0  0
   -6.0850   -7.3510    2.8840 H   0  0  0  0  0  0  0  0  0  0  0  0
   -7.1030   -5.4120    1.7870 H   0  0  0  0  0  0  0  0  0  0  0  0
   -4.7630   -9.3980    2.7920 H   0  0  0  0  0  0  0  0  0  0  0  0
    1.8970   -5.6880    4.1470 H   0  0  0  0  0  0  0  0  0  0  0  0
    0.2120   -5.6570    5.9710 H   0  0  0  0  0  0  0  0  0  0  0  0
   -0.4750   -4.3730    0.2460 H   0  0  0  0  0  0  0  0  0  0  0  0
   -3.8380   -4.2210    3.8910 H   0  0  0  0  0  0  0  0  0  0  0  0
    1.2440   -5.0880    1.8490 H   0  0  0  0  0  0  0  0  0  0  0  0
   -2.1150   -4.9980    5.5010 H   0  0  0  0  0  0  0  0  0  0  0  0
   -2.1200   -3.5260   -1.3060 H   0  0  0  0  0  0  0  0  0  0  0  0
   -5.5160   -3.3850    2.2850 H   0  0  0  0  0  0  0  0  0  0  0  0
   -6.7610   -2.0170   -0.9180 H   0  0  0  0  0  0  0  0  0  0  0  0
   -6.9450   -2.0330    0.8000 H   0  0  0  0  0  0  0  0  0  0  0  0
    4.6130   -0.3890  -11.9680 H   0  0  0  0  0  0  0  0  0  0  0  0
    5.5050    0.5820   -5.3690 H   0  0  0  0  0  0  0  0  0  0  0  0
   -1.4480   -1.9010   -8.3730 H   0  0  0  0  0  0  0  0  0  0  0  0
   -4.1230   -2.3980   -4.8810 H   0  0  0  0  0  0  0  0  0  0  0  0
    1.2440    2.1260   -2.2580 H   0  0  0  0  0  0  0  0  0  0  0  0
    2.5160    0.9570   -2.0230 H   0  0  0  0  0  0  0  0  0  0  0  0
    1.0400   -0.4290   -0.5850 H   0  0  0  0  0  0  0  0  0  0  0  0
   -0.9710    0.4180    0.3340 H   0  0  0  0  0  0  0  0  0  0  0  0
    6.6940    1.2440  -10.3500 H   0  0  0  0  0  0  0  0  0  0  0  0
    7.3940   -1.2050   -8.6490 H   0  0  0  0  0  0  0  0  0  0  0  0
    8.4570    0.1580   -8.9900 H   0  0  0  0  0  0  0  0  0  0  0  0
    7.4000    0.2490   -6.7520 H   0  0  0  0  0  0  0  0  0  0  0  0
    4.9030    1.1970   -3.1370 H   0  0  0  0  0  0  0  0  0  0  0  0
    5.8180   -0.2870   -3.5240 H   0  0  0  0  0  0  0  0  0  0  0  0
    1.2950   -1.1770  -11.5360 H   0  0  0  0  0  0  0  0  0  0  0  0
   -3.6990   -0.8510   -0.0540 H   0  0  0  0  0  0  0  0  0  0  0  0
   -0.7310   -1.0310  -10.0260 H   0  0  0  0  0  0  0  0  0  0  0  0
    4.4140    0.2930   -0.8840 H   0  0  0  0  0  0  0  0  0  0  0  0
    5.1680   -1.2410   -1.2820 H   0  0  0  0  0  0  0  0  0  0  0  0
    6.6580    1.4350   -1.1930 H   0  0  0  0  0  0  0  0  0  0  0  0
    6.6810    0.1800    0.0640 H   0  0  0  0  0  0  0  0  0  0  0  0
    7.3800   -0.1560   -1.5310 H   0  0  0  0  0  0  0  0  0  0  0  0
    6.6700   -1.5510  -11.4990 H   0  0  0  0  0  0  0  0  0  0  0  0
    8.2450   -0.9500  -11.0390 H   0  0  0  0  0  0  0  0  0  0  0  0
    1.0380    0.9740    1.4340 H   0  0  0  0  0  0  0  0  0  0  0  0
    2.5580    0.6510    0.6510 H   0  0  0  0  0  0  0  0  0  0  0  0
    6.3860    0.6150  -12.8870 H   0  0  0  0  0  0  0  0  0  0  0  0
    7.7090   -0.4420  -13.3950 H   0  0  0  0  0  0  0  0  0  0  0  0
    8.0570    1.0080  -12.4500 H   0  0  0  0  0  0  0  0  0  0  0  0
    8.0830    2.3750   -7.9090 H   0  0  0  0  0  0  0  0  0  0  0  0
    6.7520    2.6160   -6.7760 H   0  0  0  0  0  0  0  0  0  0  0  0
    6.4280    2.5780   -8.5050 H   0  0  0  0  0  0  0  0  0  0  0  0
   -0.8700    2.8310    0.3000 H   0  0  0  0  0  0  0  0  0  0  0  0
   -0.7430    2.8830   -1.4760 H   0  0  0  0  0  0  0  0  0  0  0  0
   -2.2300    2.3630   -0.7000 H   0  0  0  0  0  0  0  0  0  0  0  0
   -5.2120   -1.5840   -2.1630 H   0  0  0  0  0  0  0  0  0  0  0  0
   -4.4600   -3.0120   -2.8820 H   0  0  0  0  0  0  0  0  0  0  0  0
    1.6060    2.1840    8.6550 H   0  0  0  0  0  0  0  0  0  0  0  0
   -0.6210    4.7570    4.3890 H   0  0  0  0  0  0  0  0  0  0  0  0
    2.9490    2.3280    6.7480 H   0  0  0  0  0  0  0  0  0  0  0  0
   -2.0630    2.2150   11.8030 H   0  0  0  0  0  0  0  0  0  0  0  0
    0.3740    4.1120    2.2420 H   0  0  0  0  0  0  0  0  0  0  0  0
    4.2320    2.1690    4.6770 H   0  0  0  0  0  0  0  0  0  0  0  0
   -5.4550    6.0220    8.9090 H   0  0  0  0  0  0  0  0  0  0  0  0
   -5.8370    4.9100   11.0400 H   0  0  0  0  0  0  0  0  0  0  0  0
   -4.1830    3.3520   11.9540 H   0  0  0  0  0  0  0  0  0  0  0  0
   -3.4700    4.9520    6.4670 H   0  0  0  0  0  0  0  0  0  0  0  0
    4.6320    2.1770    0.9660 H   0  0  0  0  0  0  0  0  0  0  0  0
    1.3390    1.5620   10.6320 H   0  0  0  0  0  0  0  0  0  0  0  0
   -4.0760    7.1870    5.7690 H   0  0  0  0  0  0  0  0  0  0  0  0
   -4.0230    7.7770    7.4540 H   0  0  0  0  0  0  0  0  0  0  0  0
   -5.2300    6.5970    6.9180 H   0  0  0  0  0  0  0  0  0  0  0  0
   -0.3400    6.6860    5.3910 H   0  0  0  0  0  0  0  0  0  0  0  0
   -1.9800    6.3300    4.8210 H   0  0  0  0  0  0  0  0  0  0  0  0
   -0.7270    8.8490    5.9140 H   0  0  0  0  0  0  0  0  0  0  0  0
   -2.4650    8.6950    6.0730 H   0  0  0  0  0  0  0  0  0  0  0  0
   -1.7190    8.6110    4.4740 H   0  0  0  0  0  0  0  0  0  0  0  0
   -0.0970    7.2520    7.9670 H   0  0  0  0  0  0  0  0  0  0  0  0
   -1.2670    6.6460    9.1210 H   0  0  0  0  0  0  0  0  0  0  0  0
   -1.6970    8.0050    8.1120 H   0  0  0  0  0  0  0  0  0  0  0  0
    1.2150    3.3600    0.1850 H   0  0  0  0  0  0  0  0  0  0  0  0
    2.8830    2.9240   -0.0400 H   0  0  0  0  0  0  0  0  0  0  0  0
  1  2  1  0
  1  5  2  0
  1 11  1  0
  2  6  2  0
  2 14  1  0
  3  4  2  0
  3  7  1  0
  3114  1  0
  4  8  1  0
  4115  1  0
  5  9  1  0
  5116  1  0
  6 10  1  0
  6 17  1  0
  7  9  2  0
  7117  1  0
  8 10  2  0
  8118  1  0
  9 10  1  0
 11 12  2  0
 11119  1  0
 12 13  1  0
 12 15  1  0
 13 14  2  0
 13120  1  0
 14121  1  0
 15 16  2  0
 15122  1  0
 17 32  1  0
 18 19  1  0
 18 22  2  0
 18 28  1  0
 19 23  2  0
 19 31  1  0
 20 21  2  0
 20 24  1  0
 20123  1  0
 21 25  1  0
 21124  1  0
 22 26  1  0
 22125  1  0
 23 27  1  0
 23126  1  0
 24 26  2  0
 24127  1  0
 25 27  2  0
 25128  1  0
 26 27  1  0
 28 29  2  0
 28129  1  0
 29 30  1  0
 29 80  1  0
 30 31  2  0
 30 32  1  0
 31130  1  0
 32131  1  0
 32132  1  0
 33 34  1  0
 33 36  2  0
 33 55  1  0
 34 39  2  0
 34 58  1  0
 35 37  2  0
 35 38  1  0
 35133  1  0
 36 47  1  0
 36 61  1  0
 37 45  1  0
 37 64  1  0
 38 46  2  0
 38 70  1  0
 39 49  1  0
 39 53  1  0
 40 41  1  0
 40 45  2  0
 40 66  1  0
 41 48  2  0
 41134  1  0
 42 43  2  0
 42 46  1  0
 42 72  1  0
 43 50  1  0
 43 54  1  0
 44 47  2  0
 44 48  1  0
 44 67  1  0
 45 51  1  0
 46 51  1  0
 47 49  1  0
 48 52  1  0
 49 50  2  0
 50 52  1  0
 51 52  2  0
 53 54  2  0
 53 60  1  0
 54135  1  0
 55 56  2  0
 55 63  1  0
 56 57  1  0
 56 71  1  0
 57 58  2  0
 57 80  1  0
 58 59  1  0
 59 60  2  0
 59136  1  0
 61 62  1  0
 61137  1  0
 61138  1  0
 62 63  1  0
 62 76  1  0
 62139  1  1
 63 79  1  0
 63140  1  1
 64 65  1  0
 64 75  1  0
 64141  1  6
 65 66  1  0
 65142  1  0
 65143  1  0
 66 78  1  0
 66144  1  1
 67 68  2  0
 67 69  1  0
 69 73  1  0
 69145  1  0
 69146  1  0
 70147  1  0
 71148  1  0
 72149  1  0
 73 74  1  0
 73150  1  0
 73151  1  0
 74152  1  0
 74153  1  0
 74154  1  0
 75 77  1  0
 75155  1  0
 75156  1  0
 76113  1  0
 76157  1  0
 76158  1  0
 77159  1  0
 77160  1  0
 77161  1  0
 78162  1  0
 78163  1  0
 78164  1  0
 79165  1  0
 79166  1  0
 79167  1  0
 80168  1  0
 80169  1  0
 81 82  1  0
 81 85  2  0
 81 91  1  0
 82 86  2  0
 82 94  1  0
 83 84  2  0
 83 87  1  0
 83 95  1  0
 84 88  1  0
 84 98  1  0
 85 89  1  0
 85103  1  0
 86 90  1  0
 86170  1  0
 87 89  2  0
 87171  1  0
 88 90  2  0
 88172  1  0
 89 90  1  0
 91 92  2  0
 91 99  1  0
 92 93  1  0
 92102  1  0
 93 94  2  0
 93173  1  0
 94107  1  0
 95 96  2  0
 95174  1  0
 96 97  1  0
 96113  1  0
 97 98  2  0
 97105  1  0
 98175  1  0
 99100  2  0
 99104  1  0
100101  1  0
100176  1  0
101102  2  0
101177  1  0
102178  1  0
103104  1  0
103110  1  6
103112  1  0
104109  1  0
104179  1  6
105106  2  0
105180  1  0
107108  2  0
107181  1  0
109182  1  0
109183  1  0
109184  1  0
110111  1  0
110185  1  0
110186  1  0
111187  1  0
111188  1  0
111189  1  0
112190  1  0
112191  1  0
112192  1  0
113193  1  0
113194  1  0
M  END
