
     RDKit          3D

206226  0  0  0  0  0  0  0  0999 V2000
    2.0710   -0.1040    4.6390 C   0  0  0  0  0  0  0  0  0  0  0  0
    0.6900   -0.1860    4.9160 C   0  0  0  0  0  0  0  0  0  0  0  0
    2.6550    2.5750    8.8790 C   0  0  0  0  0  0  0  0  0  0  0  0
    1.3050    2.4970    9.1180 C   0  0  0  0  0  0  0  0  0  0  0  0
    2.9110    0.5370    5.5990 C   0  0  0  0  0  0  0  0  0  0  0  0
    0.1590    0.4900    6.0560 C   0  0  0  0  0  0  0  0  0  0  0  0
    3.1830    1.9620    7.7380 C   0  0  0  0  0  0  0  0  0  0  0  0
    0.5000    1.8110    8.2100 C   0  0  0  0  0  0  0  0  0  0  0  0
    2.3970    1.2330    6.7680 C   0  0  0  0  0  0  0  0  0  0  0  0
    0.9940    1.1830    7.0080 C   0  0  0  0  0  0  0  0  0  0  0  0
    2.5710   -0.6820    3.4270 C   0  0  0  0  0  0  0  0  0  0  0  0
    1.6940   -1.3570    2.5560 C   0  0  0  0  0  0  0  0  0  0  0  0
    0.3550   -1.5320    2.8700 C   0  0  0  0  0  0  0  0  0  0  0  0
   -0.1380   -0.9670    4.0560 C   0  0  0  0  0  0  0  0  0  0  0  0
    4.4150    0.4110    5.3960 C   0  0  0  0  0  0  0  0  0  0  0  0
    4.8230   -0.6700    4.4010 C   0  0  1  0  0  0  0  0  0  0  0  0
    4.0740   -0.5370    3.0530 C   0  0  2  0  0  0  0  0  0  0  0  0
   -1.3560    0.4680    6.2600 C   0  0  0  0  0  0  0  0  0  0  0  0
   -2.1620    0.0040    5.0570 C   0  0  0  0  0  0  0  0  0  0  0  0
   -1.5580   -1.2520    4.4880 C   0  0  0  0  0  0  0  0  0  0  0  0
    4.6390    2.1380    7.6490 C   0  0  0  0  0  0  0  0  0  0  0  0
    5.3610    1.4330    8.3520 O   0  0  0  0  0  0  0  0  0  0  0  0
    6.3470   -0.6550    4.2810 C   0  0  0  0  0  0  0  0  0  0  0  0
    6.9700    0.3550    3.9470 O   0  0  0  0  0  0  0  0  0  0  0  0
    7.0900   -1.9280    4.6060 C   0  0  0  0  0  0  0  0  0  0  0  0
   -0.8300    1.7250    8.5480 O   0  0  0  0  0  0  0  0  0  0  0  0
   -0.5350   -2.2470    2.1160 O   0  0  0  0  0  0  0  0  0  0  0  0
    4.2770    0.8600    2.3720 C   0  0  0  0  0  0  0  0  0  0  0  0
    4.5980   -1.6700    2.1260 C   0  0  0  0  0  0  0  0  0  0  0  0
    3.1700    4.7240   -1.8970 C   0  0  0  0  0  0  0  0  0  0  0  0
    3.0050    6.1180   -1.9590 C   0  0  0  0  0  0  0  0  0  0  0  0
   -0.4300    4.6400    1.7150 C   0  0  0  0  0  0  0  0  0  0  0  0
   -0.4340    6.0360    1.6340 C   0  0  0  0  0  0  0  0  0  0  0  0
    2.3180    3.9610   -1.0170 C   0  0  0  0  0  0  0  0  0  0  0  0
    2.0050    6.7060   -1.1500 C   0  0  0  0  0  0  0  0  0  0  0  0
    0.3300    3.9090    0.7330 C   0  0  0  0  0  0  0  0  0  0  0  0
    0.3180    6.6620    0.6400 C   0  0  0  0  0  0  0  0  0  0  0  0
    1.2690    4.5630   -0.1850 C   0  0  0  0  0  0  0  0  0  0  0  0
    1.1840    5.9770   -0.2450 C   0  0  0  0  0  0  0  0  0  0  0  0
    4.2160    4.1280   -2.6800 C   0  0  0  0  0  0  0  0  0  0  0  0
    5.1020    4.9170   -3.4490 C   0  0  0  0  0  0  0  0  0  0  0  0
    4.9100    6.2900   -3.5030 C   0  0  0  0  0  0  0  0  0  0  0  0
    3.8650    6.8730   -2.7950 C   0  0  0  0  0  0  0  0  0  0  0  0
   -1.1780    4.0630    2.7810 C   0  0  0  0  0  0  0  0  0  0  0  0
   -1.9130    4.8290    3.6980 C   0  0  0  0  0  0  0  0  0  0  0  0
   -1.9200    6.2090    3.5590 C   0  0  0  0  0  0  0  0  0  0  0  0
   -1.1870    6.8070    2.5380 C   0  0  0  0  0  0  0  0  0  0  0  0
    4.3970    2.7330   -2.7250 C   0  0  0  0  0  0  0  0  0  0  0  0
    5.4410    2.1490   -3.4580 C   0  0  0  0  0  0  0  0  0  0  0  0
    6.3290    2.9470   -4.1630 C   0  0  0  0  0  0  0  0  0  0  0  0
    6.1540    4.3270   -4.1660 C   0  0  0  0  0  0  0  0  0  0  0  0
    2.7510    2.4970   -0.8190 C   0  0  1  0  0  0  0  0  0  0  0  0
    3.3740    1.8610   -2.0700 C   0  0  0  0  0  0  0  0  0  0  0  0
    1.8890    8.1840   -1.2100 C   0  0  0  0  0  0  0  0  0  0  0  0
    0.8460    8.7430   -1.5210 O   0  0  0  0  0  0  0  0  0  0  0  0
    3.6500    2.3920    0.4370 C   0  0  0  0  0  0  0  0  0  0  0  0
    3.7710    0.9450    0.9250 C   0  0  0  0  0  0  0  0  0  0  0  0
   -2.7120    4.1750    4.7890 C   0  0  0  0  0  0  0  0  0  0  0  0
    0.0570    2.4200    0.6610 C   0  0  0  0  0  0  0  0  0  0  0  0
   -1.6620   -5.2240   -1.7730 C   0  0  0  0  0  0  0  0  0  0  0  0
   -1.2200   -6.1940   -2.6990 C   0  0  0  0  0  0  0  0  0  0  0  0
    2.8860   -3.2160   -2.1670 C   0  0  0  0  0  0  0  0  0  0  0  0
    3.2510   -4.2750   -3.0040 C   0  0  0  0  0  0  0  0  0  0  0  0
   -0.7030   -4.3190   -1.2070 C   0  0  0  0  0  0  0  0  0  0  0  0
    0.1080   -6.2100   -3.1170 C   0  0  0  0  0  0  0  0  0  0  0  0
    1.5900   -3.1980   -1.6100 C   0  0  0  0  0  0  0  0  0  0  0  0
    2.3000   -5.2600   -3.2800 C   0  0  0  0  0  0  0  0  0  0  0  0
    0.6180   -4.2220   -1.8000 C   0  0  0  0  0  0  0  0  0  0  0  0
    1.0090   -5.2240   -2.7190 C   0  0  0  0  0  0  0  0  0  0  0  0
   -3.0510   -5.1790   -1.4560 C   0  0  0  0  0  0  0  0  0  0  0  0
   -3.9270   -6.1680   -1.9940 C   0  0  0  0  0  0  0  0  0  0  0  0
   -3.4360   -7.1530   -2.8460 C   0  0  0  0  0  0  0  0  0  0  0  0
   -2.0980   -7.1550   -3.2070 C   0  0  0  0  0  0  0  0  0  0  0  0
    3.8170   -2.1970   -1.9080 C   0  0  0  0  0  0  0  0  0  0  0  0
    5.0990   -2.2370   -2.4610 C   0  0  0  0  0  0  0  0  0  0  0  0
    5.4600   -3.2940   -3.2890 C   0  0  0  0  0  0  0  0  0  0  0  0
    4.5410   -4.3060   -3.5630 C   0  0  0  0  0  0  0  0  0  0  0  0
   -3.6010   -4.1430   -0.6550 C   0  0  0  0  0  0  0  0  0  0  0  0
   -4.9890   -4.1440   -0.4030 C   0  0  0  0  0  0  0  0  0  0  0  0
   -5.8170   -5.1530   -0.8980 C   0  0  0  0  0  0  0  0  0  0  0  0
   -5.2920   -6.1580   -1.6960 C   0  0  0  0  0  0  0  0  0  0  0  0
   -1.1810   -3.6360    0.1360 C   0  0  1  0  0  0  0  0  0  0  0  0
   -2.6710   -3.0270   -0.1070 C   0  0  2  0  0  0  0  0  0  0  0  0
   -7.2650   -5.1340   -0.6100 C   0  0  0  0  0  0  0  0  0  0  0  0
   -7.7950   -4.2060   -0.0140 O   0  0  0  0  0  0  0  0  0  0  0  0
   -1.2510   -4.8150    1.2220 C   0  0  0  0  0  0  0  0  0  0  0  0
   -3.2660   -2.4510    1.2150 C   0  0  0  0  0  0  0  0  0  0  0  0
   -0.2070   -2.5770    0.7600 C   0  0  0  0  0  0  0  0  0  0  0  0
    0.0800   -5.4840    1.5760 C   0  0  0  0  0  0  0  0  0  0  0  0
   -2.7270   -1.7860   -1.0840 C   0  0  0  0  0  0  0  0  0  0  0  0
   -1.5770   -0.3930   -5.7180 C   0  0  0  0  0  0  0  0  0  0  0  0
   -1.2040   -0.9320   -6.9690 C   0  0  0  0  0  0  0  0  0  0  0  0
   -5.1880   -3.7260   -5.5040 C   0  0  0  0  0  0  0  0  0  0  0  0
   -4.7410   -4.2660   -6.7110 C   0  0  0  0  0  0  0  0  0  0  0  0
   -2.5080   -1.1040   -4.9210 C   0  0  0  0  0  0  0  0  0  0  0  0
   -1.8330   -2.0880   -7.4470 C   0  0  0  0  0  0  0  0  0  0  0  0
   -4.4410   -2.7090   -4.8990 C   0  0  0  0  0  0  0  0  0  0  0  0
   -3.6060   -3.7440   -7.3300 C   0  0  0  0  0  0  0  0  0  0  0  0
   -3.2790   -2.1630   -5.5000 C   0  0  0  0  0  0  0  0  0  0  0  0
   -2.9000   -2.6730   -6.7590 C   0  0  0  0  0  0  0  0  0  0  0  0
   -1.0430    0.8650   -5.3270 C   0  0  0  0  0  0  0  0  0  0  0  0
   -0.0870    1.4950   -6.1400 C   0  0  0  0  0  0  0  0  0  0  0  0
    0.3350    0.9080   -7.3280 C   0  0  0  0  0  0  0  0  0  0  0  0
   -0.2310   -0.2910   -7.7470 C   0  0  0  0  0  0  0  0  0  0  0  0
   -2.6590   -0.7360   -3.4400 C   0  0  2  0  0  0  0  0  0  0  0  0
   -1.7740    0.4560   -3.0090 C   0  0  0  0  0  0  0  0  0  0  0  0
   -1.6160    1.5480   -4.0810 C   0  0  2  0  0  0  0  0  0  0  0  0
   -6.4830   -4.2140   -4.9430 C   0  0  0  0  0  0  0  0  0  0  0  0
   -7.0280   -5.2050   -5.4380 O   0  0  0  0  0  0  0  0  0  0  0  0
   -7.1700   -3.4400   -3.8370 C   0  0  0  0  0  0  0  0  0  0  0  0
   -7.8820   -2.2110   -4.3710 C   0  0  0  0  0  0  0  0  0  0  0  0
   -2.9720    2.2000   -4.4260 C   0  0  0  0  0  0  0  0  0  0  0  0
   -2.2950   -1.9600   -2.5440 C   0  0  0  0  0  0  0  0  0  0  0  0
   -0.7070    2.6510   -3.4910 C   0  0  0  0  0  0  0  0  0  0  0  0
    3.3010    3.0900    9.5870 H   0  0  0  0  0  0  0  0  0  0  0  0
    0.8980    2.9570   10.0120 H   0  0  0  0  0  0  0  0  0  0  0  0
    2.0830   -1.7690    1.6360 H   0  0  0  0  0  0  0  0  0  0  0  0
    4.8260    1.3860    5.1090 H   0  0  0  0  0  0  0  0  0  0  0  0
    4.8660    0.0950    6.3410 H   0  0  0  0  0  0  0  0  0  0  0  0
    4.5460   -1.6380    4.8480 H   0  0  0  0  0  0  0  0  0  0  0  0
   -1.5830   -0.1860    7.1120 H   0  0  0  0  0  0  0  0  0  0  0  0
   -1.7090    1.4820    6.4700 H   0  0  0  0  0  0  0  0  0  0  0  0
   -2.1820    0.7900    4.2920 H   0  0  0  0  0  0  0  0  0  0  0  0
   -3.2020   -0.1720    5.3550 H   0  0  0  0  0  0  0  0  0  0  0  0
   -1.5420   -2.0580    5.2320 H   0  0  0  0  0  0  0  0  0  0  0  0
   -2.1890   -1.5910    3.6670 H   0  0  0  0  0  0  0  0  0  0  0  0
    5.0150    2.8760    6.9200 H   0  0  0  0  0  0  0  0  0  0  0  0
    6.3960   -2.7470    4.8030 H   0  0  0  0  0  0  0  0  0  0  0  0
    7.7170   -2.2060    3.7570 H   0  0  0  0  0  0  0  0  0  0  0  0
    7.7010   -1.7660    5.4970 H   0  0  0  0  0  0  0  0  0  0  0  0
   -1.0030    2.2290    9.3610 H   0  0  0  0  0  0  0  0  0  0  0  0
    3.7760    1.6340    2.9620 H   0  0  0  0  0  0  0  0  0  0  0  0
    5.3360    1.1290    2.3580 H   0  0  0  0  0  0  0  0  0  0  0  0
    4.0960   -1.7060    1.1560 H   0  0  0  0  0  0  0  0  0  0  0  0
    4.4640   -2.6540    2.5900 H   0  0  0  0  0  0  0  0  0  0  0  0
    5.6630   -1.5440    1.9040 H   0  0  0  0  0  0  0  0  0  0  0  0
    0.2530    7.7490    0.5990 H   0  0  0  0  0  0  0  0  0  0  0  0
    5.5600    6.9230   -4.1020 H   0  0  0  0  0  0  0  0  0  0  0  0
    3.7490    7.9510   -2.9030 H   0  0  0  0  0  0  0  0  0  0  0  0
   -1.1700    2.9840    2.9260 H   0  0  0  0  0  0  0  0  0  0  0  0
   -2.4870    6.8340    4.2450 H   0  0  0  0  0  0  0  0  0  0  0  0
   -1.2000    7.8920    2.4530 H   0  0  0  0  0  0  0  0  0  0  0  0
    5.5510    1.0680   -3.4920 H   0  0  0  0  0  0  0  0  0  0  0  0
    7.1450    2.4990   -4.7210 H   0  0  0  0  0  0  0  0  0  0  0  0
    6.8450    4.9370   -4.7430 H   0  0  0  0  0  0  0  0  0  0  0  0
    1.8820    1.8730   -0.6660 H   0  0  0  0  0  0  0  0  0  0  0  0
    2.5840    1.6720   -2.8110 H   0  0  0  0  0  0  0  0  0  0  0  0
    3.8080    0.8870   -1.8270 H   0  0  0  0  0  0  0  0  0  0  0  0
    2.8050    8.7510   -0.9810 H   0  0  0  0  0  0  0  0  0  0  0  0
    4.6480    2.8060    0.2440 H   0  0  0  0  0  0  0  0  0  0  0  0
    3.2180    2.9990    1.2430 H   0  0  0  0  0  0  0  0  0  0  0  0
    2.7960    0.4600    0.8420 H   0  0  0  0  0  0  0  0  0  0  0  0
    4.4650    0.4060    0.2730 H   0  0  0  0  0  0  0  0  0  0  0  0
   -2.5010    4.6450    5.7550 H   0  0  0  0  0  0  0  0  0  0  0  0
   -3.7830    4.2560    4.5630 H   0  0  0  0  0  0  0  0  0  0  0  0
   -2.4670    3.1150    4.8780 H   0  0  0  0  0  0  0  0  0  0  0  0
   -0.9270    2.1500    1.0540 H   0  0  0  0  0  0  0  0  0  0  0  0
    0.8050    1.8600    1.2260 H   0  0  0  0  0  0  0  0  0  0  0  0
   -0.0080    2.0930   -0.3800 H   0  0  0  0  0  0  0  0  0  0  0  0
    0.4280   -6.9760   -3.8210 H   0  0  0  0  0  0  0  0  0  0  0  0
    1.3360   -2.2970   -1.0680 H   0  0  0  0  0  0  0  0  0  0  0  0
    2.5670   -6.0650   -3.9630 H   0  0  0  0  0  0  0  0  0  0  0  0
   -4.0910   -7.9110   -3.2650 H   0  0  0  0  0  0  0  0  0  0  0  0
   -1.7470   -7.9150   -3.8990 H   0  0  0  0  0  0  0  0  0  0  0  0
    3.5520   -1.3680   -1.2620 H   0  0  0  0  0  0  0  0  0  0  0  0
    5.8130   -1.4470   -2.2420 H   0  0  0  0  0  0  0  0  0  0  0  0
    6.4570   -3.3320   -3.7250 H   0  0  0  0  0  0  0  0  0  0  0  0
    4.8360   -5.1220   -4.2200 H   0  0  0  0  0  0  0  0  0  0  0  0
   -5.4600   -3.3610    0.1830 H   0  0  0  0  0  0  0  0  0  0  0  0
   -5.9500   -6.9220   -2.1090 H   0  0  0  0  0  0  0  0  0  0  0  0
   -7.8540   -5.9920   -0.9770 H   0  0  0  0  0  0  0  0  0  0  0  0
   -1.9320   -5.6160    0.9080 H   0  0  0  0  0  0  0  0  0  0  0  0
   -1.6690   -4.4370    2.1630 H   0  0  0  0  0  0  0  0  0  0  0  0
   -3.3580   -3.2020    2.0040 H   0  0  0  0  0  0  0  0  0  0  0  0
   -4.2610   -2.0160    1.0760 H   0  0  0  0  0  0  0  0  0  0  0  0
   -2.6750   -1.6090    1.5780 H   0  0  0  0  0  0  0  0  0  0  0  0
   -0.1990   -1.6530    0.1730 H   0  0  0  0  0  0  0  0  0  0  0  0
    0.7860   -3.0240    0.7710 H   0  0  0  0  0  0  0  0  0  0  0  0
   -0.0950   -6.2780    2.3070 H   0  0  0  0  0  0  0  0  0  0  0  0
    0.5590   -5.9390    0.7020 H   0  0  0  0  0  0  0  0  0  0  0  0
    0.7810   -4.7840    2.0370 H   0  0  0  0  0  0  0  0  0  0  0  0
   -3.7660   -1.4270   -1.1070 H   0  0  0  0  0  0  0  0  0  0  0  0
   -2.1420   -0.9690   -0.6440 H   0  0  0  0  0  0  0  0  0  0  0  0
   -5.2960   -5.0690   -7.1960 H   0  0  0  0  0  0  0  0  0  0  0  0
   -1.5370   -2.4930   -8.4150 H   0  0  0  0  0  0  0  0  0  0  0  0
   -4.7800   -2.2940   -3.9570 H   0  0  0  0  0  0  0  0  0  0  0  0
   -3.3020   -4.1570   -8.2890 H   0  0  0  0  0  0  0  0  0  0  0  0
    0.3340    2.4600   -5.8760 H   0  0  0  0  0  0  0  0  0  0  0  0
    1.0760    1.4040   -7.9480 H   0  0  0  0  0  0  0  0  0  0  0  0
    0.0790   -0.7140   -8.7000 H   0  0  0  0  0  0  0  0  0  0  0  0
   -3.7030   -0.4450   -3.2800 H   0  0  0  0  0  0  0  0  0  0  0  0
   -2.1880    0.8890   -2.0890 H   0  0  0  0  0  0  0  0  0  0  0  0
   -0.7730    0.0890   -2.7420 H   0  0  0  0  0  0  0  0  0  0  0  0
   -6.4650   -3.1770   -3.0470 H   0  0  0  0  0  0  0  0  0  0  0  0
   -7.9030   -4.1090   -3.3710 H   0  0  0  0  0  0  0  0  0  0  0  0
   -8.6280   -2.4860   -5.1260 H   0  0  0  0  0  0  0  0  0  0  0  0
   -8.3960   -1.6860   -3.5590 H   0  0  0  0  0  0  0  0  0  0  0  0
   -7.1830   -1.5110   -4.8370 H   0  0  0  0  0  0  0  0  0  0  0  0
   -2.8520    2.9620   -5.2050 H   0  0  0  0  0  0  0  0  0  0  0  0
   -3.4080    2.6850   -3.5480 H   0  0  0  0  0  0  0  0  0  0  0  0
   -3.7070    1.4810   -4.8000 H   0  0  0  0  0  0  0  0  0  0  0  0
   -2.7570   -2.8630   -2.9400 H   0  0  0  0  0  0  0  0  0  0  0  0
   -1.2150   -2.1190   -2.6020 H   0  0  0  0  0  0  0  0  0  0  0  0
    0.3040    2.2790   -3.2990 H   0  0  0  0  0  0  0  0  0  0  0  0
   -1.1120    3.0230   -2.5430 H   0  0  0  0  0  0  0  0  0  0  0  0
   -0.6280    3.5140   -4.1610 H   0  0  0  0  0  0  0  0  0  0  0  0
  1  2  1  0
  1  5  2  0
  1 11  1  0
  2  6  2  0
  2 14  1  0
  3  4  2  0
  3  7  1  0
  3115  1  0
  4  8  1  0
  4116  1  0
  5  9  1  0
  5 15  1  0
  6 10  1  0
  6 18  1  0
  7  9  2  0
  7 21  1  0
  8 10  2  0
  8 26  1  0
  9 10  1  0
 11 12  2  0
 11 17  1  0
 12 13  1  0
 12117  1  0
 13 14  2  0
 13 27  1  0
 14 20  1  0
 15 16  1  0
 15118  1  0
 15119  1  0
 16 17  1  0
 16 23  1  0
 16120  1  1
 17 28  1  6
 17 29  1  0
 18 19  1  0
 18121  1  0
 18122  1  0
 19 20  1  0
 19123  1  0
 19124  1  0
 20125  1  0
 20126  1  0
 21 22  2  0
 21127  1  0
 23 24  2  0
 23 25  1  0
 25128  1  0
 25129  1  0
 25130  1  0
 26131  1  0
 27 88  1  0
 28 57  1  0
 28132  1  0
 28133  1  0
 29134  1  0
 29135  1  0
 29136  1  0
 30 31  1  0
 30 34  2  0
 30 40  1  0
 31 35  2  0
 31 43  1  0
 32 33  2  0
 32 36  1  0
 32 44  1  0
 33 37  1  0
 33 47  1  0
 34 38  1  0
 34 52  1  0
 35 39  1  0
 35 54  1  0
 36 38  2  0
 36 59  1  0
 37 39  2  0
 37137  1  0
 38 39  1  0
 40 41  2  0
 40 48  1  0
 41 42  1  0
 41 51  1  0
 42 43  2  0
 42138  1  0
 43139  1  0
 44 45  2  0
 44140  1  0
 45 46  1  0
 45 58  1  0
 46 47  2  0
 46141  1  0
 47142  1  0
 48 49  2  0
 48 53  1  0
 49 50  1  0
 49143  1  0
 50 51  2  0
 50144  1  0
 51145  1  0
 52 53  1  0
 52 56  1  0
 52146  1  1
 53147  1  0
 53148  1  0
 54 55  2  0
 54149  1  0
 56 57  1  0
 56150  1  0
 56151  1  0
 57152  1  0
 57153  1  0
 58154  1  0
 58155  1  0
 58156  1  0
 59157  1  0
 59158  1  0
 59159  1  0
 60 61  1  0
 60 64  2  0
 60 70  1  0
 61 65  2  0
 61 73  1  0
 62 63  2  0
 62 66  1  0
 62 74  1  0
 63 67  1  0
 63 77  1  0
 64 68  1  0
 64 82  1  0
 65 69  1  0
 65160  1  0
 66 68  2  0
 66161  1  0
 67 69  2  0
 67162  1  0
 68 69  1  0
 70 71  2  0
 70 78  1  0
 71 72  1  0
 71 81  1  0
 72 73  2  0
 72163  1  0
 73164  1  0
 74 75  2  0
 74165  1  0
 75 76  1  0
 75166  1  0
 76 77  2  0
 76167  1  0
 77168  1  0
 78 79  2  0
 78 83  1  0
 79 80  1  0
 79169  1  0
 80 81  2  0
 80 84  1  0
 81170  1  0
 82 83  1  0
 82 86  1  1
 82 88  1  0
 83 87  1  1
 83 90  1  0
 84 85  2  0
 84171  1  0
 86 89  1  0
 86172  1  0
 86173  1  0
 87174  1  0
 87175  1  0
 87176  1  0
 88177  1  0
 88178  1  0
 89179  1  0
 89180  1  0
 89181  1  0
 90113  1  0
 90182  1  0
 90183  1  0
 91 92  1  0
 91 95  2  0
 91101  1  0
 92 96  2  0
 92104  1  0
 93 94  2  0
 93 97  1  0
 93108  1  0
 94 98  1  0
 94184  1  0
 95 99  1  0
 95105  1  0
 96100  1  0
 96185  1  0
 97 99  2  0
 97186  1  0
 98100  2  0
 98187  1  0
 99100  1  0
101102  2  0
101107  1  0
102103  1  0
102188  1  0
103104  2  0
103189  1  0
104190  1  0
105106  1  0
105113  1  0
105191  1  6
106107  1  0
106192  1  0
106193  1  0
107112  1  6
107114  1  0
108109  2  0
108110  1  0
110111  1  0
110194  1  0
110195  1  0
111196  1  0
111197  1  0
111198  1  0
112199  1  0
112200  1  0
112201  1  0
113202  1  0
113203  1  0
114204  1  0
114205  1  0
114206  1  0
M  END
