
     RDKit          3D

209230  0  0  0  0  0  0  0  0999 V2000
   -1.8860    6.6850    0.3380 C   0  0  0  0  0  0  0  0  0  0  0  0
   -1.3040    7.9740    0.1390 C   0  0  0  0  0  0  0  0  0  0  0  0
    2.3960    5.3990   -0.6300 C   0  0  0  0  0  0  0  0  0  0  0  0
   -1.0500    5.5860    0.6610 C   0  0  0  0  0  0  0  0  0  0  0  0
    0.1210    8.0790    0.1350 C   0  0  0  0  0  0  0  0  0  0  0  0
    1.2440    4.6780   -0.3330 C   0  0  0  0  0  0  0  0  0  0  0  0
    2.1890    6.6880   -0.2170 N   0  0  0  0  0  0  0  0  0  0  0  0
    0.2830    5.6250    0.1980 C   0  0  0  0  0  0  0  0  0  0  0  0
    0.8490    6.8830    0.0410 C   0  0  0  0  0  0  0  0  0  0  0  0
   -3.3010    6.4630    0.2120 C   0  0  0  0  0  0  0  0  0  0  0  0
   -4.1250    7.5740   -0.0090 C   0  0  0  0  0  0  0  0  0  0  0  0
   -3.5820    8.8400   -0.1460 C   0  0  0  0  0  0  0  0  0  0  0  0
   -2.2100    9.0470   -0.0500 C   0  0  0  0  0  0  0  0  0  0  0  0
   -1.7510    4.4700    1.4160 C   0  0  1  0  0  0  0  0  0  0  0  0
   -2.7880    3.9210    0.4570 C   0  0  0  0  0  0  0  0  0  0  0  0
   -3.8920    5.0180    0.2450 C   0  0  1  0  0  0  0  0  0  0  0  0
    0.8910    9.3500    0.0960 C   0  0  0  0  0  0  0  0  0  0  0  0
    2.1180    9.3540    0.0040 O   0  0  0  0  0  0  0  0  0  0  0  0
   -1.7820   10.3440   -0.1670 O   0  0  0  0  0  0  0  0  0  0  0  0
   -4.4230    9.8790   -0.4470 O   0  0  0  0  0  0  0  0  0  0  0  0
   -5.4820    7.4540   -0.1240 O   0  0  0  0  0  0  0  0  0  0  0  0
   -4.9210    4.8830    1.3950 C   0  0  0  0  0  0  0  0  0  0  0  0
   -0.9130    3.4650    2.2210 C   0  0  0  0  0  0  0  0  0  0  0  0
    3.6420    5.0260   -1.3540 C   0  0  0  0  0  0  0  0  0  0  0  0
    0.9660    3.2670   -0.7840 C   0  0  0  0  0  0  0  0  0  0  0  0
   -4.5860    4.6690   -1.0890 C   0  0  0  0  0  0  0  0  0  0  0  0
    1.2410   -4.2890   -1.0330 C   0  0  0  0  0  0  0  0  0  0  0  0
    1.8180   -3.0290   -0.7390 C   0  0  0  0  0  0  0  0  0  0  0  0
    1.6140   -5.4130    3.8130 C   0  0  0  0  0  0  0  0  0  0  0  0
    2.0650   -4.1130    4.0640 C   0  0  0  0  0  0  0  0  0  0  0  0
    1.0180   -5.1910    0.0420 C   0  0  0  0  0  0  0  0  0  0  0  0
    1.9720   -2.5960    0.5910 C   0  0  0  0  0  0  0  0  0  0  0  0
    1.2750   -5.7430    2.4830 C   0  0  0  0  0  0  0  0  0  0  0  0
    2.1650   -3.2090    3.0000 C   0  0  0  0  0  0  0  0  0  0  0  0
    1.3700   -4.8410    1.3870 C   0  0  0  0  0  0  0  0  0  0  0  0
    1.8330   -3.5340    1.6600 C   0  0  0  0  0  0  0  0  0  0  0  0
    0.9500   -4.6220   -2.3940 C   0  0  0  0  0  0  0  0  0  0  0  0
    1.4020   -3.7740   -3.4120 C   0  0  0  0  0  0  0  0  0  0  0  0
    2.0900   -2.6050   -3.1170 C   0  0  0  0  0  0  0  0  0  0  0  0
    2.2960   -2.2330   -1.7880 C   0  0  0  0  0  0  0  0  0  0  0  0
    1.5380   -6.3190    4.8960 C   0  0  0  0  0  0  0  0  0  0  0  0
    1.9030   -5.9450    6.1880 C   0  0  0  0  0  0  0  0  0  0  0  0
    2.3380   -4.6490    6.4140 C   0  0  0  0  0  0  0  0  0  0  0  0
    2.4190   -3.7340    5.3670 C   0  0  0  0  0  0  0  0  0  0  0  0
    0.4470   -6.5810   -0.2700 C   0  0  2  0  0  0  0  0  0  0  0  0
    0.6850   -6.9940   -1.7550 C   0  0  2  0  0  0  0  0  0  0  0  0
    0.1280   -5.8820   -2.6850 C   0  0  2  0  0  0  0  0  0  0  0  0
    2.1910   -1.0950    0.8780 C   0  0  1  0  0  0  0  0  0  0  0  0
    2.6720   -0.2240   -0.3340 C   0  0  1  0  0  0  0  0  0  0  0  0
    3.2170   -1.0840   -1.4720 C   0  0  0  0  0  0  0  0  0  0  0  0
    1.0890   -7.5940    4.6660 O   0  0  0  0  0  0  0  0  0  0  0  0
    2.7020   -4.2960    7.6780 O   0  0  0  0  0  0  0  0  0  0  0  0
   -0.0380   -6.3230   -4.1680 C   0  0  0  0  0  0  0  0  0  0  0  0
    1.6840    0.8380   -0.8840 C   0  0  0  0  0  0  0  0  0  0  0  0
    1.9290    2.2160   -0.2410 C   0  0  0  0  0  0  0  0  0  0  0  0
   -1.0300   -6.6430    0.1680 C   0  0  0  0  0  0  0  0  0  0  0  0
    0.1310   -8.4000   -2.0180 C   0  0  0  0  0  0  0  0  0  0  0  0
    0.9170   -0.5420    1.5590 C   0  0  0  0  0  0  0  0  0  0  0  0
   -5.9040   -4.1360   -1.5370 C   0  0  0  0  0  0  0  0  0  0  0  0
   -1.9290   -1.4480   -6.6940 C   0  0  0  0  0  0  0  0  0  0  0  0
   -5.0270   -4.9720   -2.2290 C   0  0  0  0  0  0  0  0  0  0  0  0
   -1.7010   -2.7580   -6.2730 C   0  0  0  0  0  0  0  0  0  0  0  0
   -6.0640   -2.7910   -1.8980 C   0  0  0  0  0  0  0  0  0  0  0  0
   -2.8310   -0.6480   -6.0050 C   0  0  0  0  0  0  0  0  0  0  0  0
   -4.2410   -4.4870   -3.2800 C   0  0  0  0  0  0  0  0  0  0  0  0
   -2.4030   -3.2830   -5.1770 C   0  0  0  0  0  0  0  0  0  0  0  0
   -5.2410   -0.8800   -3.1970 C   0  0  0  0  0  0  0  0  0  0  0  0
   -4.4590   -0.3570   -4.2320 C   0  0  0  0  0  0  0  0  0  0  0  0
   -5.1980   -2.2510   -2.8780 C   0  0  0  0  0  0  0  0  0  0  0  0
   -3.5800   -1.1720   -4.9420 C   0  0  0  0  0  0  0  0  0  0  0  0
   -4.2790   -3.0900   -3.5690 C   0  0  0  0  0  0  0  0  0  0  0  0
   -3.4300   -2.5240   -4.5630 C   0  0  0  0  0  0  0  0  0  0  0  0
   -3.3910   -5.3580   -4.2280 C   0  0  1  0  0  0  0  0  0  0  0  0
   -2.0430   -4.6060   -4.4790 C   0  0  1  0  0  0  0  0  0  0  0  0
   -7.1440   -1.9250   -1.2260 C   0  0  1  0  0  0  0  0  0  0  0  0
   -7.4370   -0.6520   -2.0790 C   0  0  2  0  0  0  0  0  0  0  0  0
   -6.1140    0.0490   -2.3950 C   0  0  0  0  0  0  0  0  0  0  0  0
   -4.9650   -6.2850   -1.8520 O   0  0  0  0  0  0  0  0  0  0  0  0
   -8.4430    0.3490   -1.4800 C   0  0  0  0  0  0  0  0  0  0  0  0
   -0.8970   -5.4330   -5.1150 C   0  0  0  0  0  0  0  0  0  0  0  0
   -8.0390    0.9720   -0.1520 C   0  0  0  0  0  0  0  0  0  0  0  0
   -8.4540   -2.7010   -0.9830 C   0  0  0  0  0  0  0  0  0  0  0  0
   -3.2400   -6.8380   -3.8740 C   0  0  0  0  0  0  0  0  0  0  0  0
    6.0190    1.2560    3.7510 C   0  0  0  0  0  0  0  0  0  0  0  0
    6.1260    2.4990    3.0880 C   0  0  0  0  0  0  0  0  0  0  0  0
    1.6200    2.7460    4.2480 C   0  0  0  0  0  0  0  0  0  0  0  0
    4.8180    0.8970    4.4390 C   0  0  0  0  0  0  0  0  0  0  0  0
    4.9890    3.3520    3.0310 C   0  0  0  0  0  0  0  0  0  0  0  0
    2.2860    1.6120    4.6620 C   0  0  0  0  0  0  0  0  0  0  0  0
    2.5320    3.5120    3.5740 N   0  0  0  0  0  0  0  0  0  0  0  0
    3.6610    1.7200    4.2870 C   0  0  0  0  0  0  0  0  0  0  0  0
    3.7780    2.9140    3.5880 C   0  0  0  0  0  0  0  0  0  0  0  0
    7.1130    0.3570    3.7480 C   0  0  0  0  0  0  0  0  0  0  0  0
    8.3000    0.6660    3.0250 C   0  0  0  0  0  0  0  0  0  0  0  0
    8.4190    1.9430    2.3420 C   0  0  0  0  0  0  0  0  0  0  0  0
    7.3510    2.8810    2.4680 C   0  0  0  0  0  0  0  0  0  0  0  0
    7.0040   -0.8640    4.4770 C   0  0  0  0  0  0  0  0  0  0  0  0
    8.0470   -1.7880    4.4810 C   0  0  0  0  0  0  0  0  0  0  0  0
    9.1990   -1.5240    3.7660 C   0  0  0  0  0  0  0  0  0  0  0  0
    9.3190   -0.3210    3.0710 C   0  0  0  0  0  0  0  0  0  0  0  0
    5.8630   -1.1520    5.2230 C   0  0  0  0  0  0  0  0  0  0  0  0
    4.8010   -0.2720    5.2270 C   0  0  0  0  0  0  0  0  0  0  0  0
    9.5400    2.3710    1.5620 C   0  0  0  0  0  0  0  0  0  0  0  0
    9.6620    3.6580    1.0380 C   0  0  0  0  0  0  0  0  0  0  0  0
    8.6700    4.5870    1.2800 C   0  0  0  0  0  0  0  0  0  0  0  0
    7.5170    4.2180    1.9780 C   0  0  0  0  0  0  0  0  0  0  0  0
    5.0750    4.6460    2.2650 C   0  0  0  0  0  0  0  0  0  0  0  0
    6.4680    5.2650    2.3490 C   0  0  2  0  0  0  0  0  0  0  0  0
   10.5710    1.5110    1.2740 O   0  0  0  0  0  0  0  0  0  0  0  0
    3.7910   -0.5680    6.1070 O   0  0  0  0  0  0  0  0  0  0  0  0
    0.2110    3.1550    4.5230 C   0  0  0  0  0  0  0  0  0  0  0  0
   -0.4210    4.1250    3.5280 C   0  0  0  0  0  0  0  0  0  0  0  0
    6.4860    6.5660    1.5360 C   0  0  0  0  0  0  0  0  0  0  0  0
    2.8290    7.4630   -0.3500 H   0  0  0  0  0  0  0  0  0  0  0  0
   -2.3170    4.9780    2.2110 H   0  0  0  0  0  0  0  0  0  0  0  0
   -3.2380    2.9950    0.8400 H   0  0  0  0  0  0  0  0  0  0  0  0
   -2.3170    3.6630   -0.5010 H   0  0  0  0  0  0  0  0  0  0  0  0
    0.3650   10.3030    0.2070 H   0  0  0  0  0  0  0  0  0  0  0  0
   -2.4420   10.8910    0.3040 H   0  0  0  0  0  0  0  0  0  0  0  0
   -3.9470   10.4150   -1.1140 H   0  0  0  0  0  0  0  0  0  0  0  0
   -5.8150    8.3650   -0.2530 H   0  0  0  0  0  0  0  0  0  0  0  0
   -5.8390    5.4510    1.2000 H   0  0  0  0  0  0  0  0  0  0  0  0
   -5.2280    3.8410    1.5320 H   0  0  0  0  0  0  0  0  0  0  0  0
   -4.5200    5.2410    2.3510 H   0  0  0  0  0  0  0  0  0  0  0  0
   -0.0610    3.0740    1.6680 H   0  0  0  0  0  0  0  0  0  0  0  0
   -1.5390    2.6070    2.4870 H   0  0  0  0  0  0  0  0  0  0  0  0
    4.3200    5.8800   -1.4620 H   0  0  0  0  0  0  0  0  0  0  0  0
    3.4070    4.6590   -2.3580 H   0  0  0  0  0  0  0  0  0  0  0  0
    4.1870    4.2360   -0.8320 H   0  0  0  0  0  0  0  0  0  0  0  0
   -0.0600    2.9810   -0.5360 H   0  0  0  0  0  0  0  0  0  0  0  0
    1.0050    3.2590   -1.8810 H   0  0  0  0  0  0  0  0  0  0  0  0
   -4.9130    3.6220   -1.1000 H   0  0  0  0  0  0  0  0  0  0  0  0
   -5.4750    5.2790   -1.2780 H   0  0  0  0  0  0  0  0  0  0  0  0
   -3.9070    4.8110   -1.9370 H   0  0  0  0  0  0  0  0  0  0  0  0
    0.9340   -6.7640    2.3160 H   0  0  0  0  0  0  0  0  0  0  0  0
    2.5400   -2.2130    3.2370 H   0  0  0  0  0  0  0  0  0  0  0  0
    1.2770   -4.0110   -4.4570 H   0  0  0  0  0  0  0  0  0  0  0  0
    2.4820   -1.9960   -3.9290 H   0  0  0  0  0  0  0  0  0  0  0  0
    1.8500   -6.6360    7.0190 H   0  0  0  0  0  0  0  0  0  0  0  0
    2.7690   -2.7270    5.5530 H   0  0  0  0  0  0  0  0  0  0  0  0
    1.0050   -7.3210    0.3170 H   0  0  0  0  0  0  0  0  0  0  0  0
    1.7730   -7.0570   -1.9090 H   0  0  0  0  0  0  0  0  0  0  0  0
   -0.8820   -5.6670   -2.3330 H   0  0  0  0  0  0  0  0  0  0  0  0
    3.0150   -1.0200    1.6040 H   0  0  0  0  0  0  0  0  0  0  0  0
    3.5450    0.3420    0.0320 H   0  0  0  0  0  0  0  0  0  0  0  0
    3.4240   -0.4770   -2.3600 H   0  0  0  0  0  0  0  0  0  0  0  0
    4.1860   -1.5100   -1.1770 H   0  0  0  0  0  0  0  0  0  0  0  0
    1.0940   -8.0770    5.5120 H   0  0  0  0  0  0  0  0  0  0  0  0
    3.0130   -3.3720    7.6590 H   0  0  0  0  0  0  0  0  0  0  0  0
    0.9520   -6.4570   -4.6240 H   0  0  0  0  0  0  0  0  0  0  0  0
   -0.4960   -7.3140   -4.1980 H   0  0  0  0  0  0  0  0  0  0  0  0
    1.8370    0.9670   -1.9660 H   0  0  0  0  0  0  0  0  0  0  0  0
    0.6410    0.5290   -0.7730 H   0  0  0  0  0  0  0  0  0  0  0  0
    2.9610    2.5050   -0.4580 H   0  0  0  0  0  0  0  0  0  0  0  0
    1.8600    2.1680    0.8470 H   0  0  0  0  0  0  0  0  0  0  0  0
   -1.1530   -6.3730    1.2210 H   0  0  0  0  0  0  0  0  0  0  0  0
   -1.6710   -5.9600   -0.4000 H   0  0  0  0  0  0  0  0  0  0  0  0
   -1.4370   -7.6550    0.0570 H   0  0  0  0  0  0  0  0  0  0  0  0
    0.4330   -9.0910   -1.2240 H   0  0  0  0  0  0  0  0  0  0  0  0
    0.5240   -8.8070   -2.9570 H   0  0  0  0  0  0  0  0  0  0  0  0
   -0.9610   -8.4010   -2.0750 H   0  0  0  0  0  0  0  0  0  0  0  0
    0.0340   -0.6650    0.9230 H   0  0  0  0  0  0  0  0  0  0  0  0
    0.6880   -1.0550    2.4960 H   0  0  0  0  0  0  0  0  0  0  0  0
    1.0160    0.5130    1.8200 H   0  0  0  0  0  0  0  0  0  0  0  0
   -6.4950   -4.5560   -0.7320 H   0  0  0  0  0  0  0  0  0  0  0  0
   -1.3740   -1.0440   -7.5370 H   0  0  0  0  0  0  0  0  0  0  0  0
   -0.9560   -3.3340   -6.8090 H   0  0  0  0  0  0  0  0  0  0  0  0
   -2.9560    0.3870   -6.3100 H   0  0  0  0  0  0  0  0  0  0  0  0
   -4.5390    0.6990   -4.4750 H   0  0  0  0  0  0  0  0  0  0  0  0
   -3.9490   -5.3620   -5.1770 H   0  0  0  0  0  0  0  0  0  0  0  0
   -1.6680   -4.2490   -3.5150 H   0  0  0  0  0  0  0  0  0  0  0  0
   -6.7410   -1.6240   -0.2510 H   0  0  0  0  0  0  0  0  0  0  0  0
   -7.8710   -0.9890   -3.0330 H   0  0  0  0  0  0  0  0  0  0  0  0
   -5.5800    0.3140   -1.4750 H   0  0  0  0  0  0  0  0  0  0  0  0
   -6.2960    0.9750   -2.9500 H   0  0  0  0  0  0  0  0  0  0  0  0
   -5.4730   -6.4080   -1.0360 H   0  0  0  0  0  0  0  0  0  0  0  0
   -9.4290   -0.1200   -1.3690 H   0  0  0  0  0  0  0  0  0  0  0  0
   -8.5900    1.1660   -2.2000 H   0  0  0  0  0  0  0  0  0  0  0  0
   -0.1890   -4.7750   -5.6150 H   0  0  0  0  0  0  0  0  0  0  0  0
   -1.2920   -6.0520   -5.9300 H   0  0  0  0  0  0  0  0  0  0  0  0
   -8.8300    1.6460    0.1920 H   0  0  0  0  0  0  0  0  0  0  0  0
   -7.1230    1.5620   -0.2500 H   0  0  0  0  0  0  0  0  0  0  0  0
   -7.8880    0.2150    0.6220 H   0  0  0  0  0  0  0  0  0  0  0  0
   -8.3080   -3.5630   -0.3240 H   0  0  0  0  0  0  0  0  0  0  0  0
   -8.8730   -3.0680   -1.9260 H   0  0  0  0  0  0  0  0  0  0  0  0
   -9.2070   -2.0810   -0.4900 H   0  0  0  0  0  0  0  0  0  0  0  0
   -2.7420   -6.9830   -2.9130 H   0  0  0  0  0  0  0  0  0  0  0  0
   -4.2160   -7.3370   -3.8400 H   0  0  0  0  0  0  0  0  0  0  0  0
   -2.6780   -7.3800   -4.6410 H   0  0  0  0  0  0  0  0  0  0  0  0
    1.8100    0.7940    5.1850 H   0  0  0  0  0  0  0  0  0  0  0  0
    2.3340    4.3940    3.1240 H   0  0  0  0  0  0  0  0  0  0  0  0
    7.9690   -2.7210    5.0360 H   0  0  0  0  0  0  0  0  0  0  0  0
   10.0200   -2.2350    3.7690 H   0  0  0  0  0  0  0  0  0  0  0  0
   10.2690   -0.1690    2.5730 H   0  0  0  0  0  0  0  0  0  0  0  0
    5.8050   -2.0520    5.8320 H   0  0  0  0  0  0  0  0  0  0  0  0
   10.5380    3.9620    0.4740 H   0  0  0  0  0  0  0  0  0  0  0  0
    8.8170    5.6000    0.9170 H   0  0  0  0  0  0  0  0  0  0  0  0
    4.3380    5.3620    2.6470 H   0  0  0  0  0  0  0  0  0  0  0  0
    4.8150    4.4300    1.2260 H   0  0  0  0  0  0  0  0  0  0  0  0
    6.6720    5.5400    3.3950 H   0  0  0  0  0  0  0  0  0  0  0  0
   11.1660    1.9180    0.6240 H   0  0  0  0  0  0  0  0  0  0  0  0
    3.4730    0.2880    6.4450 H   0  0  0  0  0  0  0  0  0  0  0  0
   -0.4200    2.2610    4.6150 H   0  0  0  0  0  0  0  0  0  0  0  0
    0.2080    3.6360    5.5110 H   0  0  0  0  0  0  0  0  0  0  0  0
    0.2460    4.9640    3.3030 H   0  0  0  0  0  0  0  0  0  0  0  0
   -1.2900    4.5620    4.0390 H   0  0  0  0  0  0  0  0  0  0  0  0
    5.6680    7.2270    1.8430 H   0  0  0  0  0  0  0  0  0  0  0  0
    7.4170    7.1230    1.6950 H   0  0  0  0  0  0  0  0  0  0  0  0
    6.3770    6.3720    0.4620 H   0  0  0  0  0  0  0  0  0  0  0  0
  1  2  2  0
  1  4  1  0
  1 10  1  0
  2  5  1  0
  2 13  1  0
  3  6  2  0
  3  7  1  0
  3 24  1  0
  4  8  2  0
  4 14  1  0
  5  9  2  0
  5 17  1  0
  6  8  1  0
  6 25  1  0
  7  9  1  0
  7114  1  0
  8  9  1  0
 10 11  2  0
 10 16  1  0
 11 12  1  0
 11 21  1  0
 12 13  2  0
 12 20  1  0
 13 19  1  0
 14 15  1  0
 14 23  1  0
 14115  1  1
 15 16  1  0
 15116  1  0
 15117  1  0
 16 22  1  1
 16 26  1  0
 17 18  2  0
 17118  1  0
 19119  1  0
 20120  1  0
 21121  1  0
 22122  1  0
 22123  1  0
 22124  1  0
 23112  1  0
 23125  1  0
 23126  1  0
 24127  1  0
 24128  1  0
 24129  1  0
 25 55  1  0
 25130  1  0
 25131  1  0
 26132  1  0
 26133  1  0
 26134  1  0
 27 28  2  0
 27 31  1  0
 27 37  1  0
 28 32  1  0
 28 40  1  0
 29 30  1  0
 29 33  2  0
 29 41  1  0
 30 34  2  0
 30 44  1  0
 31 35  2  0
 31 45  1  0
 32 36  2  0
 32 48  1  0
 33 35  1  0
 33135  1  0
 34 36  1  0
 34136  1  0
 35 36  1  0
 37 38  2  0
 37 47  1  0
 38 39  1  0
 38137  1  0
 39 40  2  0
 39138  1  0
 40 50  1  0
 41 42  2  0
 41 51  1  0
 42 43  1  0
 42139  1  0
 43 44  2  0
 43 52  1  0
 44140  1  0
 45 46  1  0
 45 56  1  0
 45141  1  1
 46 47  1  0
 46 57  1  0
 46142  1  1
 47 53  1  0
 47143  1  1
 48 49  1  0
 48 58  1  0
 48144  1  1
 49 50  1  0
 49 54  1  0
 49145  1  1
 50146  1  0
 50147  1  0
 51148  1  0
 52149  1  0
 53 80  1  0
 53150  1  0
 53151  1  0
 54 55  1  0
 54152  1  0
 54153  1  0
 55154  1  0
 55155  1  0
 56156  1  0
 56157  1  0
 56158  1  0
 57159  1  0
 57160  1  0
 57161  1  0
 58162  1  0
 58163  1  0
 58164  1  0
 59 61  2  0
 59 63  1  0
 59165  1  0
 60 62  2  0
 60 64  1  0
 60166  1  0
 61 65  1  0
 61 78  1  0
 62 66  1  0
 62167  1  0
 63 69  2  0
 63 75  1  0
 64 70  2  0
 64168  1  0
 65 71  2  0
 65 73  1  0
 66 72  2  0
 66 74  1  0
 67 68  2  0
 67 69  1  0
 67 77  1  0
 68 70  1  0
 68169  1  0
 69 71  1  0
 70 72  1  0
 71 72  1  0
 73 74  1  0
 73 83  1  0
 73170  1  6
 74 80  1  0
 74171  1  1
 75 76  1  0
 75 82  1  0
 75172  1  1
 76 77  1  0
 76 79  1  0
 76173  1  6
 77174  1  0
 77175  1  0
 78176  1  0
 79 81  1  0
 79177  1  0
 79178  1  0
 80179  1  0
 80180  1  0
 81181  1  0
 81182  1  0
 81183  1  0
 82184  1  0
 82185  1  0
 82186  1  0
 83187  1  0
 83188  1  0
 83189  1  0
 84 85  2  0
 84 87  1  0
 84 93  1  0
 85 88  1  0
 85 96  1  0
 86 89  2  0
 86 90  1  0
 86111  1  0
 87 91  2  0
 87102  1  0
 88 92  2  0
 88107  1  0
 89 91  1  0
 89190  1  0
 90 92  1  0
 90191  1  0
 91 92  1  0
 93 94  2  0
 93 97  1  0
 94 95  1  0
 94100  1  0
 95 96  2  0
 95103  1  0
 96106  1  0
 97 98  2  0
 97101  1  0
 98 99  1  0
 98192  1  0
 99100  2  0
 99193  1  0
100194  1  0
101102  2  0
101195  1  0
102110  1  0
103104  2  0
103109  1  0
104105  1  0
104196  1  0
105106  2  0
105197  1  0
106108  1  0
107108  1  0
107198  1  0
107199  1  0
108113  1  0
108200  1  1
109201  1  0
110202  1  0
111112  1  0
111203  1  0
111204  1  0
112205  1  0
112206  1  0
113207  1  0
113208  1  0
113209  1  0
M  END
