52

C      38.067200000000000     39.033113999999998     39.332819999999991
C      39.656200000000013     41.374969999999990     37.903319999999987
C      41.639200000000010     39.726810000000000     41.582019999999993
C      38.318800000000010     38.600819999999985     40.511420000000001
C      39.647700000000007     41.226100000000002     39.464119999999994
C      40.480499999999999     38.815031000000005     41.196519999999985
C      39.253700000000002     39.565014000000005     39.932219999999994
C      40.775900000000007     41.664419999999993     40.118219999999987
C      37.256700000000009     38.433219999999992     38.276519999999991
C      37.698600000000006     38.631719999999987     36.846220000000002
C      38.675400000000010     39.548832000000004     36.252219999999987
C      39.345100000000009     40.749859999999998     36.586619999999996
C      36.254200000000012     37.411919999999995     38.693919999999991
C      36.067000000000007     36.907419999999988     36.345619999999997
C      35.302600000000012     36.855219999999989     37.523619999999994
C      36.982900000000008     37.937719999999999     35.800519999999992
C      37.478600000000007     37.901519999999991     42.751899000000002
C      37.578800000000008     37.655919999999995     41.201719999999987
C      36.506300000000010     36.887320000000003     40.053619999999995
C      40.507700000000000     42.084989999999991     38.726019999999991
C      36.106400000000008     38.637819999999991     43.376612000000009
C      33.715900000000012     37.330219999999983     37.508820000000000
C      35.384000000000007     34.262019999999993     36.306019999999990
C      41.571200000000012     38.652261010000004     40.313220000000001
C      39.109700000000011     40.239300000000000     35.176620000000000
C      39.564000000000000     40.176269999999988     33.791119999999992
C      38.130000000000003     41.735489999999999     32.458119999999994
C      39.161000000000008     40.915749999999989     32.500519999999995
C      35.532700000000013     35.566920000000010     36.672820000000002
H      40.310100000000013     37.892319999999998     41.769719999999985
H      37.436700000000009     38.100919999999988     34.915819999999997
H      37.739800000000002     37.487119999999990     43.554989999999997
H      38.455800000000011     38.659643419999995     42.862351000000004
H      35.409500000000008     38.367820000000009     44.490480000000005
H      36.347800000000007     39.763639999999995     43.443620000000003
H      35.215600000000009     38.560320000000004     42.717700000000001
H      33.114300000000000     36.925220000000010     36.835219999999993
H      33.124100000000013     37.000019999999992     38.406019999999991
H      33.709500000000013     38.253020000000006     37.741320000000002
H      35.889000000000010     33.798119999999997     35.403620000000004
H      34.841799999999999     33.591320000000010     37.123419999999996
H      42.440900000000006     37.956919999999982     40.799619999999990
H      41.448900000000016     39.157088999999999     39.098320000000001
H      42.505600000000008     39.511711000000005     42.406519999999993
H      40.429000000000009     40.749759999999995     33.719719999999995
H      39.640200000000007     39.125723999999991     33.546520000000001
H      41.959400000000002     42.031649999999999     42.040719999999993
H      39.418700000000008     40.536109999999994     31.509519999999995
H      42.885700000000000     41.595709999999997     40.855319999999992
N      41.862700000000004     41.389899999999997     41.130820000000000
O      37.395300000000013     36.226119999999995     40.670620000000000
O      37.281100000000009     42.408679999999990     31.943519999999992
