56

C      35.516350000000003     40.769769999999994     42.676749999999998
C      37.625249999999994     36.889510000000001     38.330350000000003
C      36.698650000000001     38.009080000000004     38.817250000000001
C      37.679149999999993     37.740519999999989     33.297350000000002
C      38.327550000000002     37.024239999999999     37.047450000000005
C      36.362049999999996     38.961170000000003     37.790250000000007
C      39.043650000000000     37.778930000000003     33.317850000000000
C      38.298850000000002     37.779800000000002     34.607750000000003
C      38.029250000000005     38.098010000000002     36.093349999999994
C      36.904349999999994     39.038270000000004     36.515250000000002
C      38.269949999999994     35.860810000000001     39.246450000000003
C      37.612849999999995     35.987610000000004     40.521950000000004
C      36.724249999999998     36.983390000000000     41.186350000000004
C      36.402749999999997     38.143310000000000     40.246850000000002
C      39.525149999999996     35.079700000000003     38.918150000000004
C      39.491150000000005     34.621369999999999     41.377350000000007
C      40.085049999999995     34.315959999999997     40.041750000000000
C      38.468649999999997     35.534709999999997     41.647250000000007
C      40.105549999999994     35.408830000000002     37.611450000000005
C      39.568150000000003     36.318519999999999     36.633350000000007
C      36.858549999999994     38.029939999999996     43.443249999999999
C      36.115349999999992     37.003140000000002     42.459450000000004
C      35.272550000000010     38.260960000000004     42.985549999999996
C      35.442850000000007     39.112670000000001     40.691650000000003
C      35.231750000000005     39.943269999999998     38.267350000000000
C      35.206450000000004     40.224670000000003     39.806750000000001
C      41.243350000000007     34.627089999999995     37.033750000000005
C      39.659250000000000     39.269269999999992     32.885850000000005
C      36.215350000000001     41.137769999999996     39.014250000000004
C      34.813650000000010     39.419270000000004     42.120150000000002
C      39.867649999999998     36.463870000000000     32.823349999999998
H      35.662250000000000     40.750869999999999     43.830050000000000
H      34.891550000000009     41.727269999999997     42.562949999999994
H      36.717449999999999     37.955929999999995     33.076850000000000
H      36.570949999999996     39.522870000000005     35.616350000000004
H      41.116849999999999     33.756779999999999     39.820150000000005
H      39.815049999999999     35.737450000000003     35.846049999999998
H      35.648350000000008     36.034500000000001     42.738950000000003
H      34.965950000000007     38.470370000000003     44.115550000000006
H      34.509650000000008     40.417470000000002     37.642249999999997
H      34.490049999999997     40.967769999999994     40.238150000000005
H      40.547950000000000     38.766069999999999     32.545050000000003
H      39.819649999999996     39.950569999999999     33.778849999999998
H      37.053749999999994     40.745369999999994     39.633550000000007
H      35.806649999999991     42.248370000000001     39.003950000000003
H      36.546650000000000     40.967269999999992     42.329250000000002
H      33.747650000000007     39.832370000000004     42.112749999999998
H      40.755250000000004     36.535950000000000     33.323650000000001
H      40.257549999999995     36.325789999999998     31.600049999999996
H      39.321950000000001     35.634720000000002     32.918650000000000
H      39.404949999999999     34.480130000000003     43.512649999999994
H      38.120750000000001     36.041969999999999     42.703650000000003
H      39.159549999999996     39.976070000000000     32.163750000000000
O      42.252349999999993     34.384839999999997     36.611950000000007
O      37.315250000000006     37.473400000000005     44.399950000000004
O      39.471050000000005     33.751629999999999     42.645849999999996
