5

C      38.221999999999994     37.995050000000006     37.968799999999995
H      38.742300000000000     37.815150000000003     37.103300000000004
H      37.257700000000000     37.400250000000014     38.100900000000003
H      37.998699999999999     38.757149999999996     38.726399999999998
H      38.401600000000002     37.242850000000004     38.896699999999996
