10

C      37.383649999999989     38.271849999999986     39.306149999999988
C      38.422149999999995     37.991149999999998     36.839050000000000
C      37.324349999999995     37.765849999999993     37.838450000000009
H      38.280049999999996     37.726549999999996     39.623350000000002
H      37.424250000000001     39.331150000000001     38.961150000000004
H      36.719749999999991     38.048150000000000     40.000349999999997
H      38.185449999999989     38.691349999999993     35.999650000000003
H      36.798650000000002     36.668849999999999     37.939250000000001
H      36.474449999999997     38.074149999999989     37.517650000000003
O      39.525550000000003     37.552349999999997     36.506649999999993
