5

C      37.965049999999998     37.917049999999989     37.768449999999994
H      38.939549999999997     37.233049999999999     37.950650000000003
H      37.649950000000004     38.401750000000000     38.802750000000003
H      37.060450000000003     37.468249999999998     37.197249999999997
H      38.403449999999999     38.766950000000001     37.421950000000002
