6

C      37.264999999999986     37.836199999999998     37.976749999999996
C      38.427599999999998     38.383700000000005     37.754050000000007
H      36.838499999999996     38.273800000000001     38.935649999999995
H      36.801500000000004     36.980800000000002     37.488349999999997
H      39.198499999999996     38.290599999999998     37.064350000000005
H      38.778199999999984     39.019199999999998     38.538149999999987
