6

C      38.217949999999988     38.049799999999991     38.659449999999993
C      37.340149999999994     37.947399999999995     37.621349999999993
H      37.722049999999996     38.815700000000000     39.262249999999995
H      39.235450000000000     38.588399999999993     38.608050000000006
H      38.592549999999989     37.184300000000000     39.046350000000004
O      36.764550000000000     38.248699999999992     36.737750000000005
