43

C      39.929199999999994     38.479249999999993     37.683499999999995
C      39.515399999999993     39.038850000000004     36.355400000000003
C      35.903300000000002     36.470149999999997     39.331499999999998
C      35.591700000000003     36.650050000000000     37.843499999999992
C      39.132100000000001     38.166750000000000     38.949700000000000
C      38.073099999999997     39.022449999999999     36.241800000000005
C      37.093499999999999     37.059649999999998     39.666600000000003
C      36.019500000000001     37.646149999999999     36.779200000000003
C      37.755699999999997     37.881850000000000     38.629999999999995
C      37.210099999999990     38.202249999999999     37.274000000000001
C      41.419199999999996     38.531150000000004     37.805899999999994
C      42.167499999999997     39.088349999999998     36.707600000000006
C      41.810899999999997     39.533549999999991     35.437500000000007
C      40.383000000000003     39.367649999999998     35.232000000000006
C      34.885899999999999     35.748649999999998     40.121000000000002
C      33.831800000000001     35.021650000000001     39.680100000000003
C      33.559699999999992     35.200949999999999     38.221999999999994
C      34.292099999999998     36.149949999999990     37.374399999999994
C      41.443399999999997     38.299950000000003     40.515899999999995
C      42.192399999999999     38.474249999999991     39.146199999999993
C      42.116900000000001     37.075949999999999     40.251899999999999
C      42.168499999999995     39.323749999999990     41.371699999999997
C      42.491700000000002     40.490649999999995     34.340100000000000
H      43.440700000000000     40.762250000000002     34.131200000000000
H      39.333100000000002     37.599049999999991     41.034500000000001
H      37.563800000000001     39.226049999999994     35.348500000000001
H      37.403799999999997     36.987050000000004     40.668299999999995
H      35.426299999999998     38.218150000000001     35.943100000000001
H      43.235599999999998     39.422749999999994     36.727499999999999
H      40.144899999999993     39.873249999999992     34.224899999999998
H      34.972499999999997     35.436149999999998     41.191799999999994
H      33.137599999999992     34.313949999999998     40.331000000000003
H      32.559300000000000     35.131949999999996     37.604199999999999
H      33.949100000000001     36.190750000000001     36.416500000000006
H      43.233699999999999     38.667749999999991     39.104799999999997
H      42.945099999999996     36.865349999999999     40.700400000000002
H      41.318300000000001     36.214449999999999     40.179800000000007
H      41.542900000000003     40.396449999999987     41.382800000000003
H      43.181499999999993     39.545150000000000     40.982899999999994
H      42.293999999999990     39.208750000000002     42.579900000000002
H      41.847600000000000     41.686050000000002     34.098800000000004
H      42.602100000000000     39.999649999999995     33.420099999999998
N      39.814399999999999     38.229949999999995     40.159399999999998
