6

C      37.390099999999997     38.216099999999997     38.265200000000007
C      38.444800000000001     37.474299999999999     37.830000000000013
H      36.696899999999999     38.541200000000011     37.491000000000000
H      37.632900000000006     38.898700000000005     39.140799999999999
H      38.479100000000003     37.101299999999995     36.859200000000001
H      39.303100000000001     37.374300000000005     38.566000000000003
