5

C      38.190249999999992     38.200099999999992     38.108069499999992
H      38.333750000000009     37.301000000000002     38.219619500000000
H      38.312550000000002     38.405899999999995     37.041460499999999
H      38.972650000000002     38.698999999999998     38.958539500000001
H      37.027349999999998     38.638499999999993     38.340679500000000
