111

C      35.288284200000000     38.967599999999997     34.479699999999994
C      35.281187400000007     38.380099999999999     33.251899999999999
C      34.263309999999997     34.274400000000000     35.997599999999991
C      34.099110000000010     33.925200000000004     34.515900000000002
C      34.848710000000004     38.016500000000008     35.673300000000005
C      34.806710000000010     37.114300000000000     32.802600000000005
C      34.368509999999993     35.602000000000004     36.430600000000005
C      34.007209999999993     34.942400000000006     33.496400000000001
C      34.593710000000002     36.623699999999999     35.420300000000005
C      34.691009999999999     36.158500000000004     33.987200000000001
C      35.706296000000009     40.442799999999998     34.659399999999998
C      36.300409999999999     40.209800000000001     32.220500000000001
C      36.212443000000007     41.078200000000010     33.409399999999998
C      35.863646000000003     38.856800000000007     32.114100000000001
C      34.284310000000012     33.192100000000003     37.116300000000003
C      34.184210000000000     31.857300000000006     36.590499999999999
C      34.042710000000000     31.564700000000006     35.196300000000001
C      33.829410000000003     32.551400000000001     34.093400000000003
C      35.788359000000000     40.923600000000008     35.946699999999993
C      36.272280000000009     42.343399999999995     36.294599999999996
C      37.056640000000002     40.927800000000005     31.381199999999993
C      35.655426999999996     40.090400000000002     37.030299999999997
C      35.146710000000006     38.622400000000006     36.927099999999996
C      34.969110000000001     37.589899999999993     37.960499999999996
C      34.510510000000018     36.306200000000004     37.771999999999998
C      33.817209999999996     33.685200000000009     38.549100000000003
C      34.593910000000001     35.116000000000000     38.790099999999995
C      36.150138999999996     34.707800000000006     39.083700000000000
C      36.564910000000005     33.636600000000001     40.359900000000003
C      33.852809999999998     32.476600000000005     39.583899999999993
C      41.367219999999996     42.980100000000007     43.231800000000000
C      36.795620000000007     39.143599999999999     42.596699999999998
C      38.207460000000005     43.528799999999997     40.855699999999999
C      40.487650000000002     40.247500000000002     43.038899999999991
C      38.418970000000009     42.478499999999997     38.384200000000000
C      38.140689999999999     39.020700000000005     43.091900000000003
C      39.136220000000009     43.143400000000000     39.605899999999991
C      36.375509999999998     40.265700000000010     41.784499999999994
C      36.748790000000007     42.795799999999993     41.070000000000000
C      39.086600000000004     40.150900000000007     42.597299999999997
C      39.382419999999996     42.569699999999997     41.143200000000000
C      37.217120000000008     41.366599999999998     41.547199999999997
C      38.728420000000000     41.357800000000005     41.735900000000001
C      41.286099999999998     41.485400000000006     43.393500000000003
C      42.539190000000005     40.937800000000010     43.820100000000004
C      42.461940000000006     39.439500000000010     43.888199999999998
C      41.050460000000008     39.069100000000006     43.795299999999997
C      40.228550000000006     37.899500000000003     44.208100000000002
C      38.837010000000006     37.921500000000002     43.813499999999998
C      35.747613000000008     38.170400000000001     42.995100000000001
C      34.483210000000007     37.805099999999996     42.303399999999996
C      34.049910000000011     39.050100000000000     41.709799999999994
C      34.884309999999999     40.217700000000008     41.532899999999991
C      36.247460000000004     37.259399999999999     44.248399999999997
C      37.842840000000010     36.747700000000009     44.002299999999998
C      38.178890000000003     44.913599999999995     41.499000000000002
C      37.664210000000004     35.925700000000006     42.853799999999993
C      38.616690000000006     45.141900000000000     43.021999999999998
C      36.561140000000009     34.610399999999998     43.022399999999998
C      35.874408000000003     34.100100000000005     41.548999999999999
C      41.003940000000007     36.658700000000003     44.938800000000001
C      40.164529999999999     41.988800000000005     39.930399999999999
H      37.625619999999998     41.926799999999993     31.746000000000002
H      34.543010000000010     36.907899999999998     31.771400000000000
H      33.686410000000016     34.574700000000007     32.538600000000002
H      36.592200000000005     42.055800000000005     33.590200000000003
H      36.012188000000009     38.300400000000003     31.136200000000002
H      34.175010000000007     31.181500000000003     37.368000000000002
H      34.038510000000002     30.468700000000005     35.242800000000003
H      33.883310000000002     32.265500000000003     33.039499999999997
H      37.239020000000004     40.481100000000005     30.156799999999997
H      35.915659000000005     40.657700000000006     38.030999999999999
H      35.157810000000012     37.803400000000003     39.045299999999997
H      32.688709999999993     34.227500000000006     38.129699999999993
H      34.249410000000019     35.242900000000006     39.867099999999994
H      36.659820000000003     34.809300000000007     38.366500000000002
H      36.599290000000003     35.867000000000004     39.684300000000000
H      37.587609999999998     33.698200000000000     40.633699999999990
H      36.505390000000006     32.641500000000001     40.042300000000004
H      34.719810000000017     32.362400000000008     40.190399999999997
H      33.350209999999997     32.453200000000010     40.508499999999991
H      33.502610000000004     31.563200000000002     39.245300000000000
H      36.463730000000005     42.962600000000009     40.129399999999997
H      35.930436000000000     43.390200000000000     41.657800000000002
H      43.311290000000007     41.545299999999997     43.964899999999993
H      43.229930000000003     38.828400000000002     44.177399999999999
H      33.826810000000002     37.021800000000006     42.483600000000003
H      33.117110000000018     38.916700000000006     41.332100000000004
H      34.278610000000008     41.151000000000003     41.227600000000002
H      35.787387000000003     36.192200000000000     44.276999999999994
H      36.093160000000005     37.810500000000005     45.183499999999995
H      38.068500000000000     36.097100000000005     45.011499999999998
H      37.213040000000007     45.461500000000008     41.385400000000004
H      39.185670000000009     45.256100000000004     40.899500000000003
H      37.428200000000004     36.522500000000008     42.112900000000003
H      38.502110000000009     35.679200000000009     42.256900000000002
H      38.940210000000008     44.122799999999998     43.493299999999998
H      37.887850000000000     45.531299999999995     43.649200000000000
H      39.647980000000004     45.368099999999998     43.186300000000003
H      36.025031000000006     34.320600000000006     43.881399999999999
H      37.112879999999997     33.773000000000003     43.311999999999998
H      35.326724000000006     34.982800000000005     41.537500000000001
H      35.034810000000000     33.571700000000007     41.663299999999992
H      40.929570000000005     35.706500000000005     44.405199999999994
H      42.054020000000001     36.830400000000004     44.781700000000001
H      40.333760000000005     36.424300000000002     45.843200000000003
H      39.921960000000006     41.074900000000000     39.345000000000006
H      41.268030000000003     42.208799999999997     39.796299999999995
O      36.134023000000006     43.373799999999996     36.581400000000002
O      37.911470000000008     41.641599999999997     37.791499999999999
O      41.682719999999996     44.055399999999999     43.328999999999994
