238

C      29.287199999999999     30.759899999999998     42.106399999999994
C      28.837899999999998     30.424100000000006     43.201999999999998
C      28.762300000000003     31.082800000000010     40.716499999999996
C      30.549799999999998     30.417800000000003     42.543700000000001
C      44.995440000000016     40.651499999999999     39.193200000000004
C      45.593790000000006     41.339399999999998     37.883700000000005
C      38.715390000000014     45.771900000000002     34.179000000000002
C      39.543370000000010     42.018400000000000     40.839700000000008
C      40.107760000000006     45.437100000000001     33.764200000000002
C      38.402350000000006     45.379599999999996     35.516300000000001
C      38.850690000000007     43.089100000000002     40.056399999999996
C      43.664760000000008     40.832999999999998     39.698200000000000
C      44.755450000000003     42.204200000000000     37.018299999999996
C      41.073010000000011     41.980400000000003     40.569200000000009
C      42.360270000000007     45.021400000000000     34.914400000000001
C      43.195360000000008     44.254599999999996     35.911900000000003
C      38.579310000000000     44.632599999999996     37.960700000000003
C      40.771990000000010     44.881799999999998     34.887799999999999
C      39.234220000000008     45.036500000000004     36.650900000000007
C      39.386930000000007     43.781500000000008     38.891400000000004
C      42.996620000000007     41.882100000000008     38.857200000000006
C      43.557620000000000     42.737600000000000     37.727000000000004
C      41.683050000000009     42.502800000000008     39.412000000000006
C      42.710470000000008     43.609400000000008     36.977000000000004
C      40.477589999999999     44.604100000000003     36.412400000000005
C      40.833990000000014     43.431600000000003     38.599900000000005
C      41.465650000000011     44.027500000000003     37.350499999999997
C      43.070690000000006     40.633300000000006     41.046900000000008
C      41.863970000000009     41.193600000000004     41.617099999999994
C      45.767340000000004     39.911500000000004     40.124400000000009
C      46.997779999999999     39.425200000000004     39.730600000000010
C      47.556699999999999     39.713899999999995     38.428100000000001
C      46.927890000000005     40.820099999999996     37.507100000000008
C      45.401710000000001     39.226100000000002     41.522300000000001
C      43.595730000000003     39.356999999999999     41.696799999999996
C      38.851130000000012     41.070400000000006     41.893900000000002
C      39.747830000000000     41.093600000000009     43.138500000000008
C      41.318809999999999     41.086600000000004     42.941699999999997
C      40.626330000000003     46.102500000000006     32.623599999999996
C      42.233720000000012     46.458700000000007     32.738500000000002
C      42.683560000000007     45.260900000000007     33.571399999999997
C      39.262480000000004     39.697500000000005     44.103499999999997
C      39.968970000000013     45.574100000000001     31.443700000000000
C      38.219070000000002     39.820900000000009     41.378700000000009
C      39.798470000000009     46.626199999999997     30.243199999999998
C      36.980399999999989     44.716000000000008     38.257899999999992
C      40.079790000000010     39.585099999999997     37.880800000000008
C      41.201590000000010     40.207800000000006     37.225600000000000
C      43.991970000000009     36.773600000000002     38.882700000000000
C      40.387960000000007     38.408900000000003     38.847600000000000
C      42.658950000000004     39.896299999999997     37.176900000000003
C      42.695100000000011     36.920100000000005     39.341900000000010
C      43.977500000000006     37.584800000000001     37.581200000000010
C      41.720570000000009     37.823099999999997     38.635800000000003
C      42.763210000000008     38.517300000000006     37.738399999999999
C      38.711780000000012     40.036600000000007     37.734800000000007
C      38.344170000000005     41.151899999999998     36.824499999999986
C      39.390310000000007     41.417400000000001     35.828699999999998
C      40.743780000000015     41.239900000000006     36.240700000000004
C      37.524045000000008     39.393400000000000     38.393400000000000
C      36.373499999999993     40.114599999999996     38.449300000000008
C      35.900099999999995     41.431399999999996     37.695300000000003
C      36.954200000000000     41.592100000000002     36.756299999999996
C      39.324140000000007     37.881900000000002     39.661699999999996
C      37.732921000000005     38.064000000000007     39.349100000000007
C      39.308610000000009     38.487700000000004     41.059300000000007
C      44.143740000000001     36.875500000000002     36.316899999999990
C      43.134410000000003     35.671099999999996     36.002799999999993
C      34.508500000000005     41.891500000000008     37.001300000000001
C      32.012000000000008     34.231000000000009     43.620699999999999
C      36.926399999999987     38.896500000000003     44.912399999999991
C      33.351300000000002     33.560900000000004     43.951499999999996
C      37.029500000000006     37.638599999999997     45.550100000000000
C      31.892699999999998     35.593400000000003     43.035200000000003
C      35.709799999999994     39.356200000000001     44.074300000000008
C      34.189600000000006     34.504800000000003     44.640400000000000
C      36.005399999999995     36.670000000000002     45.492000000000004
C      33.326099999999997     38.088700000000003     43.136499999999998
C      33.048600000000000     36.493400000000008     43.201000000000008
C      34.716200000000008     38.409400000000005     43.936599999999999
C      34.001500000000000     35.858300000000000     44.253000000000000
C      34.939699999999995     37.025199999999998     44.568899999999999
C      35.223099999999988     34.335099999999997     45.779799999999994
C      36.144700000000007     35.383099999999999     46.163100000000000
C      30.884999999999991     33.136399999999995     43.170900000000003
C      31.550599999999989     31.722400000000004     42.855999999999995
C      32.732999999999997     31.183700000000005     43.588400000000007
C      33.611600000000003     32.197599999999994     44.470299999999995
C      34.537500000000001     31.894600000000001     45.460999999999999
C      35.456499999999998     32.896400000000000     46.020300000000006
C      30.453799999999994     35.457800000000006     42.470799999999997
C      30.062900000000006     33.921400000000006     42.080300000000008
C      32.928999999999995     31.409800000000001     42.159000000000006
C      30.374799999999993     36.357900000000001     41.330200000000005
C      34.122400000000006     32.004400000000004     41.344200000000001
C      32.424399999999999     38.525300000000001     44.194699999999997
C      31.292800000000007     33.606800000000007     44.658999999999992
C      38.130720000000011     39.799199999999999     45.111999999999995
C      32.589900000000007     29.837300000000003     44.370800000000003
C      36.896200000000000     35.172499999999999     33.850999999999999
C      38.019818000000001     36.008600000000001     34.303700000000006
C      33.467400000000005     39.383300000000006     38.526800000000009
C      34.318500000000000     38.286900000000003     36.407300000000006
C      35.429800000000007     35.358699999999999     34.272499999999994
C      37.594854000000012     36.980900000000005     35.451000000000001
C      33.968899999999998     37.195599999999999     35.705300000000001
C      35.776100000000007     38.436800000000005     36.113799999999998
C      35.240199999999994     36.348700000000008     35.255700000000004
C      36.368299999999991     37.275700000000001     35.716700000000003
C      37.136230000000005     34.285399999999996     32.656000000000006
C      38.287430000000001     34.277799999999999     31.868900000000000
C      39.554430000000004     34.917500000000004     32.593299999999999
C      39.286090000000002     35.889300000000006     33.679699999999997
C      33.146700000000003     39.245400000000004     39.984600000000000
C      33.342199999999998     39.421199999999999     36.991799999999998
C      33.503700000000002     40.819800000000001     36.206600000000009
C      33.080399999999997     38.113200000000006     39.074100000000001
C      35.789899999999989     33.774900000000002     32.348399999999998
C      35.894700000000007     33.202600000000004     30.999899999999997
C      38.060400000000008     33.754599999999996     30.511199999999999
C      34.717400000000005     34.366100000000003     33.362099999999998
C      33.164899999999996     34.693799999999996     33.307699999999997
C      40.786450000000009     35.036600000000007     32.161699999999996
C      33.323699999999995     33.655500000000004     34.266700000000000
C      32.658400000000007     34.202600000000004     31.930099999999996
C      31.202699999999993     33.415900000000008     31.680700000000002
C      28.304399999999987     29.652100000000008     46.123999999999995
C      32.966299999999997     40.800300000000007     39.072699999999998
H      36.708599999999997     32.719999999999999     29.140699999999999
H      33.786599999999993     40.816900000000004     35.125199999999992
H      28.336599999999997     32.130499999999998     40.873500000000007
H      29.364100000000001     30.409600000000001     40.027500000000003
H      31.137200000000000     29.464400000000001     42.463000000000008
H      27.750400000000006     30.746500000000001     40.554099999999991
H      38.028558000000011     46.344800000000006     33.484600000000000
H      37.521793000000009     45.418500000000009     36.115899999999996
H      37.865748000000004     43.190300000000008     39.669599999999988
H      45.224230000000013     42.724800000000002     36.213800000000006
H      44.320540000000008     44.421000000000006     35.761000000000003
H      47.511100000000006     38.618300000000005     40.459299999999999
H      48.591900000000003     39.264700000000005     38.155699999999996
H      47.786500000000011     41.195800000000006     37.000300000000010
H      45.817760000000000     38.199799999999996     41.947400000000002
H      45.751250000000006     39.859000000000009     42.435199999999995
H      43.429150000000007     38.456800000000001     40.978700000000003
H      43.064470000000014     38.661600000000007     42.531099999999995
H      37.768449000000004     41.633200000000002     42.197900000000004
H      39.698500000000010     42.082700000000003     43.523399999999995
H      41.490980000000000     41.738200000000006     43.651300000000006
H      42.191390000000006     40.496899999999997     43.562699999999992
H      40.264940000000003     47.168700000000001     32.506599999999999
H      42.251930000000009     47.308599999999998     33.447599999999994
H      42.395490000000002     46.373000000000005     31.586400000000001
H      42.301840000000013     44.548900000000003     32.884799999999998
H      43.760860000000001     45.032800000000009     33.498199999999997
H      40.235970000000002     39.310500000000005     44.557800000000000
H      38.741370000000011     38.767899999999997     43.583500000000001
H      38.917380000000009     45.205900000000000     31.634399999999999
H      40.321240000000003     44.563000000000002     31.087100000000000
H      37.612696000000007     39.386499999999998     42.136600000000001
H      37.509057000000006     40.000900000000001     40.730400000000003
H      41.000610000000002     46.769199999999998     30.111099999999997
H      39.432900000000004     46.226600000000005     29.228499999999997
H      39.306650000000005     47.495300000000000     30.163900000000002
H      36.406699999999987     43.997200000000007     37.458300000000008
H      36.612400000000001     45.786600000000007     38.112200000000001
H      44.698510000000006     35.981400000000008     38.989199999999997
H      43.465130000000009     40.377200000000002     36.703400000000002
H      42.598310000000005     36.186900000000009     40.058099999999996
H      44.835270000000001     38.146799999999999     37.605699999999999
H      39.028300000000002     42.124300000000005     35.020899999999997
H      41.386470000000010     41.924999999999997     35.587099999999992
H      35.620399999999997     39.640100000000004     39.069400000000002
H      36.867300000000007     42.019500000000008     35.789999999999999
H      39.466580000000008     36.703500000000005     39.787199999999999
H      38.049010000000003     37.233900000000006     38.717399999999998
H      36.721899999999991     37.465000000000003     39.883000000000010
H      39.336420000000011     37.623900000000006     41.872000000000000
H      40.218820000000001     39.033900000000003     40.955900000000000
H      44.826860000000011     37.376199999999997     35.551299999999998
H      45.101550000000010     36.226100000000002     36.554400000000001
H      42.847860000000004     35.130200000000002     34.932800000000000
H      43.293080000000010     34.720500000000001     36.500600000000006
H      42.146390000000004     35.950299999999999     36.335200000000000
H      33.977399999999989     42.360900000000001     37.823800000000006
H      34.604499999999987     42.781000000000006     36.176500000000004
H      36.201399999999992     44.271200000000007     39.062299999999993
H      37.840938000000001     37.097700000000003     46.424700000000001
H      35.999699999999990     40.144700000000000     43.432100000000005
H      33.151800000000001     38.592700000000008     42.034900000000007
H      36.950099999999999     35.239199999999997     46.859300000000005
H      34.204600000000006     30.913200000000007     46.099699999999999
H      36.441899999999997     32.733000000000004     46.544799999999995
H      29.762499999999996     35.668000000000006     43.304800000000000
H      30.508699999999997     33.615800000000007     41.061900000000009
H      29.008699999999997     33.636600000000001     41.936700000000002
H      32.946400000000004     30.498200000000001     41.501199999999997
H      30.212700000000005     37.456900000000005     41.779800000000009
H      29.696300000000001     35.736599999999996     40.908299999999997
H      31.396099999999990     36.956199999999995     41.298699999999997
H      34.801300000000005     31.186100000000007     40.879700000000000
H      33.742300000000007     32.415199999999999     40.366799999999998
H      34.607599999999991     32.799199999999999     41.901899999999998
H      32.724799999999995     39.620400000000004     44.359200000000001
H      32.376399999999990     37.978899999999996     45.132000000000005
H      31.343899999999998     38.471199999999996     43.588899999999995
H      30.785900000000005     34.424599999999998     45.055199999999999
H      33.464999999999989     29.126500000000011     44.369500000000002
H      31.013199999999998     32.856800000000007     45.447599999999994
H      37.573493000000006     40.832700000000003     45.126199999999997
H      38.181780000000010     40.000700000000009     46.196199999999990
H      31.738399999999999     29.055899999999998     44.401399999999995
H      32.575499999999998     30.090300000000003     45.378900000000002
H      38.255410000000005     37.815799999999996     35.723500000000001
H      32.859199999999994     37.012299999999996     35.624800000000000
H      36.457699999999988     39.626100000000008     36.172800000000009
H      40.118350000000007     36.458300000000008     34.015600000000006
H      33.921699999999987     39.044200000000004     40.591200000000001
H      32.093299999999999     39.064099999999996     36.925399999999996
H      32.395399999999995     41.036200000000008     35.858300000000000
H      35.077199999999991     32.552899999999994     30.360900000000001
H      39.023890000000009     33.979200000000006     30.004400000000000
H      32.999699999999990     35.743800000000007     33.711200000000005
H      32.843600000000002     32.427700000000002     33.826200000000000
H      33.476499999999994     33.990700000000004     35.289699999999996
H      32.261199999999995     34.948099999999997     31.006700000000002
H      33.499100000000006     33.551400000000001     31.734299999999998
H      30.372899999999994     34.070099999999996     31.455200000000001
H      31.175300000000000     32.504900000000006     30.950399999999998
H      31.276699999999998     33.211399999999998     32.782399999999996
H      29.264800000000001     29.827899999999996     46.507300000000001
H      28.307600000000001     28.504700000000003     45.842100000000002
H      27.408099999999997     29.857600000000009     46.759399999999999
N      36.935300000000005     32.968599999999995     30.130499999999998
O      41.600930000000005     35.407399999999996     31.442499999999999
O      33.130199999999995     36.777100000000004     39.061700000000002
O      32.229199999999992     41.581699999999998     38.689500000000010
S      27.840600000000002     30.852000000000007     44.450599999999994
