95

C      34.414749999999984     43.390449999999994     42.979799999999990
C      34.938749999999999     43.255150000000000     44.269700000000000
C      33.544650000000004     41.693950000000001     39.700899999999997
C      33.221750000000000     43.348450000000000     41.970700000000001
C      33.607149999999990     43.051950000000005     40.492100000000001
C      36.399849999999986     43.521250000000002     44.732399999999998
C      35.333950000000002     43.784450000000000     46.459200000000003
C      31.898650000000000     43.203850000000003     42.256099999999989
C      32.409049999999993     44.694950000000006     42.220999999999997
C      35.723349999999996     43.554150000000007     38.800300000000000
C      35.839749999999995     43.587250000000004     43.228200000000001
C      36.574050000000000     43.552650000000000     46.057299999999998
C      31.206249999999994     42.909050000000008     43.775399999999998
C      37.208150000000003     44.006050000000002     39.680599999999991
C      34.431650000000005     43.003850000000000     39.453400000000002
C      41.514949999999985     37.177549999999997     34.915900000000001
C      42.226449999999986     36.096750000000000     35.740400000000001
C      40.582149999999984     40.136250000000004     41.518999999999998
C      40.934650000000005     38.331250000000004     35.651400000000002
C      42.511449999999996     36.038650000000004     37.164699999999996
C      40.290349999999989     40.721850000000003     40.220399999999991
C      40.908249999999995     38.672449999999998     41.289600000000000
C      40.607249999999993     39.426650000000002     37.904600000000002
C      41.802949999999996     37.165450000000000     39.154299999999999
C      40.944349999999986     38.182150000000007     37.120199999999997
C      41.732649999999992     37.068150000000003     37.810800000000000
C      40.705649999999991     39.734549999999999     39.342700000000001
C      41.023949999999999     38.336350000000003     39.842900000000000
C      41.587850000000003     37.058549999999997     33.456699999999998
C      42.014849999999996     35.715550000000007     32.654299999999999
C      42.878050000000002     34.762250000000002     33.451499999999996
C      42.642949999999985     34.927350000000004     34.852300000000000
C      40.796449999999993     38.155349999999999     32.873400000000004
C      41.246949999999984     37.593650000000004     31.459000000000003
C      40.591549999999998     37.637050000000002     30.165900000000001
C      41.562749999999994     36.096550000000008     31.381899999999995
C      40.067849999999993     39.138149999999996     33.682099999999998
C      40.201049999999995     39.355750000000000     34.998199999999997
C      39.726649999999992     40.511750000000006     35.755699999999997
C      39.997349999999997     40.445650000000001     37.149000000000001
C      43.835549999999998     33.663550000000001     33.214500000000001
C      43.845849999999999     33.033650000000002     34.471199999999996
C      44.278549999999996     31.575250000000004     34.994900000000001
C      43.159750000000003     33.867350000000002     35.618699999999997
C      42.553849999999997     34.743250000000003     37.905999999999999
C      43.318949999999987     33.567650000000000     36.913199999999996
C      39.498449999999991     41.731450000000002     37.808900000000001
C      39.406149999999997     41.806550000000001     39.293900000000001
C      41.065049999999999     34.356949999999998     38.394300000000001
C      40.071049999999985     34.841950000000004     37.241099999999996
C      43.937249999999992     36.819350000000000     37.270600000000002
C      39.604449999999986     43.384650000000008     39.291499999999999
C      38.501850000000005     44.346049999999998     39.067700000000002
H      31.480349999999998     42.736950000000000     41.392200000000003
H      32.444049999999990     45.020649999999996     43.305300000000003
H      32.597449999999995     45.238849999999999     41.380800000000001
H      36.075649999999996     43.046650000000000     38.012400000000000
H      37.492849999999990     43.797349999999994     46.861699999999999
H      31.914449999999999     42.982749999999996     44.441299999999991
H      30.851550000000000     41.880650000000003     43.969099999999997
H      30.894249999999996     44.021450000000002     44.101099999999995
H      37.454149999999998     43.165250000000000     40.314000000000000
H      36.777749999999997     44.516050000000000     40.643999999999998
H      33.067250000000001     41.194349999999993     40.573700000000002
H      35.415249999999986     44.615650000000002     38.383899999999997
H      40.235050000000001     40.580250000000007     42.496699999999997
H      41.254149999999996     37.922149999999995     41.927799999999998
H      42.397349999999989     36.596750000000000     39.650100000000002
H      41.527349999999998     35.451650000000001     30.474400000000003
H      39.302849999999992     39.757750000000001     33.068999999999996
H      39.089749999999995     41.333349999999996     35.274200000000000
H      43.226849999999999     34.833849999999998     38.714999999999996
H      43.974450000000004     32.884149999999998     37.460700000000003
H      39.489949999999993     42.823649999999994     37.201400000000000
H      38.577749999999995     41.920150000000007     37.440399999999997
H      38.406549999999996     41.698149999999998     39.613000000000000
H      40.913650000000004     33.267749999999999     38.527299999999997
H      40.901849999999996     34.729450000000000     39.269899999999993
H      39.064149999999998     35.080750000000002     37.649099999999997
H      40.055949999999996     35.935150000000000     36.647999999999996
H      40.176749999999998     34.029750000000007     36.439399999999999
H      44.669949999999986     37.190649999999998     37.915599999999998
H      44.737349999999992     35.990849999999995     37.005199999999995
H      44.289450000000002     37.519150000000003     36.418700000000001
H      40.412449999999993     43.368849999999995     38.538800000000002
H      40.303950000000000     43.475850000000001     40.283600000000000
H      38.270949999999999     44.338050000000003     38.027799999999999
H      38.884849999999986     45.330149999999996     39.406399999999998
H      45.148449999999997     32.759150000000005     31.673400000000001
H      33.509149999999991     40.982650000000007     38.870500000000000
H      44.931950000000001     31.177250000000004     35.775999999999996
O      44.375149999999991     33.410250000000005     31.849699999999999
O      40.124449999999996     37.638649999999998     29.138300000000001
O      43.660049999999998     30.669850000000004     34.478600000000000
O      34.255749999999992     43.825349999999993     46.657799999999995
