6

C      38.644904999999994     37.670049999999989     38.738749999999996
C      37.427484999999997     38.028950000000002     38.041350000000008
H      37.208635000000001     37.226549999999996     37.261250000000004
H      37.392965000000004     38.773450000000004     37.402550000000005
H      36.489595000000001     38.184249999999999     38.461550000000017
O      39.510404999999999     38.377349999999993     38.726750000000010
