8

C      37.609150000000000     37.448349999999991     37.307699999999997
C      38.335950000000004     38.125549999999997     38.581200000000003
H      36.594950000000004     37.189850000000000     37.501500000000000
H      38.175450000000005     36.799950000000003     36.593899999999998
H      37.658549999999998     38.333649999999999     36.610599999999998
H      38.413050000000005     37.395750000000000     39.406100000000002
H      39.405049999999996     38.062750000000001     38.167099999999998
H      38.015250000000002     39.200049999999997     38.932000000000002
