102

C      36.271299999999989     40.870599999999996     40.639954999999993
C      35.346999999999994     41.101200000000006     36.455455000000001
C      34.890400000000000     40.811800000000005     33.126625000000004
C      41.061899999999994     35.032000000000011     35.060254999999991
C      36.969699999999996     32.845300000000002     37.714855000000000
C      35.722799999999992     41.301100000000005     37.962755000000001
C      41.173199999999994     33.645000000000003     35.075555000000001
C      38.149099999999997     32.437000000000005     36.931055000000001
C      39.945099999999996     35.637600000000006     33.951124999999998
C      36.056299999999993     41.031199999999998     33.990875000000003
C      36.353099999999991     34.031199999999998     37.063955000000000
C      37.599699999999999     35.793400000000005     33.586234999999995
C      36.432099999999991     38.157700000000006     34.260234999999994
C      35.714299999999994     36.750600000000006     36.704855000000002
C      39.018400000000000     33.134700000000002     36.012955000000005
C      34.785600000000002     40.392099999999999     37.624154999999995
C      38.648899999999998     34.766100000000009     34.010314999999999
C      35.337499999999999     38.167700000000011     36.675854999999999
C      36.812899999999992     36.757400000000004     34.553454999999992
C      35.878799999999998     40.382200000000012     35.269955000000003
C      36.986599999999996     34.742400000000004     35.922355000000003
C      35.765999999999998     38.802800000000005     35.378255000000003
C      36.572299999999998     36.148099999999999     35.721355000000003
C      38.262199999999993     34.152100000000004     35.383655000000005
C      37.070099999999989     40.326899999999995     32.949694999999998
C      36.830500000000001     38.949300000000008     33.030874999999995
C      37.860599999999998     34.712400000000002     32.773654999999998
C      37.555899999999994     38.139300000000006     32.140965000000001
C      35.102800000000002     34.480600000000003     37.807254999999998
C      34.872199999999992     35.862200000000001     37.662355000000005
C      35.860099999999989     44.943700000000007     33.991145000000003
C      34.994000000000000     43.572400000000002     33.889704999999999
C      35.652000000000001     42.239199999999997     33.266104999999996
C      36.312199999999990     32.082300000000004     38.953355000000002
C      34.791799999999995     32.090400000000002     38.826954999999998
C      34.412300000000002     33.581400000000002     38.916955000000002
C      40.360999999999997     32.433300000000003     35.570155000000000
C      40.481099999999991     31.306300000000004     36.569555000000001
C      39.105899999999991     31.073700000000006     37.319854999999997
C      41.111699999999999     35.554500000000004     36.373555000000003
C      41.871699999999997     31.443400000000008     37.524355000000000
C      40.217399999999991     37.033900000000003     36.701455000000003
C      34.503599999999999     31.927300000000006     37.281055000000002
C      37.434699999999992     33.753700000000002     31.548025000000003
C      42.363000000000000     34.527100000000004     34.490054999999998
C      33.394399999999997     36.386000000000010     37.928555000000003
C      36.967699999999994     40.823300000000003     41.791454999999992
C      36.622299999999996     41.355099999999993     39.114955000000002
C      35.817499999999995     39.901300000000006     41.664154999999994
C      36.566399999999994     39.733400000000003     42.960554999999999
C      37.383399999999995     38.577500000000001     43.329954999999998
C      37.265799999999999     37.844000000000008     44.669655000000006
H      40.166399999999989     35.702300000000008     32.704494999999994
H      35.337899999999998     45.831099999999992     34.301335000000002
H      34.561700000000002     41.828500000000005     36.153254999999994
H      39.944599999999987     36.737300000000005     34.007305000000002
H      34.182400000000001     38.572700000000012     38.737755000000000
H      36.428599999999989     44.901900000000012     34.994354999999999
H      36.376099999999994     45.438400000000001     33.188485000000000
H      34.073099999999997     44.092200000000005     33.589794999999995
H      34.655999999999999     43.283500000000004     34.826954999999998
H      37.601699999999994     40.730600000000010     32.184504999999994
H      35.973999999999997     42.363399999999999     32.248884999999994
H      36.665999999999997     31.007700000000000     39.186755000000005
H      36.697400000000002     32.442500000000010     39.987455000000004
H      34.026699999999998     31.712600000000002     39.476855000000000
H      34.356600000000000     34.197000000000003     39.788755000000002
H      33.270299999999999     33.778900000000007     38.947355000000002
H      40.345399999999998     31.892600000000002     34.662455000000001
H      40.827100000000002     30.375400000000006     36.071255000000001
H      39.135399999999997     30.538400000000006     38.282955000000001
H      38.508699999999997     30.168900000000004     36.946155000000005
H      41.301199999999987     34.727300000000000     37.207354999999993
H      41.839399999999998     36.181300000000007     36.313854999999997
H      41.797399999999996     31.125400000000006     38.679055000000005
H      42.068299999999994     32.442700000000002     37.756855000000002
H      42.799199999999992     30.943400000000000     37.023555000000002
H      40.850999999999999     37.828000000000003     36.449455000000000
H      39.279399999999988     36.942500000000010     36.099054999999993
H      40.123099999999994     36.971200000000010     37.780155000000001
H      35.303599999999996     32.146700000000010     36.410954999999994
H      33.889799999999994     31.197900000000004     36.912655000000001
H      33.788100000000000     32.852900000000005     36.950654999999998
H      36.931799999999996     34.208300000000001     30.585044999999994
H      36.404999999999994     33.331699999999998     31.928954999999995
H      38.066299999999998     32.693400000000004     31.576535000000000
H      43.240099999999998     34.661300000000004     35.282055000000000
H      42.602999999999994     34.521200000000000     33.316054999999999
H      33.149599999999992     36.813000000000002     36.873155000000004
H      32.885599999999997     35.508099999999999     38.312854999999999
H      32.759900000000002     37.250100000000003     38.287255000000002
H      36.085099999999997     39.051700000000011     41.183055000000003
H      36.021799999999992     40.299000000000007     43.709055000000006
H      37.490599999999993     36.850400000000008     44.774055000000004
H      37.155599999999986     37.972799999999992     42.430055000000003
H      36.232299999999995     38.334299999999999     45.068155000000004
H      37.914599999999993     38.360700000000008     45.414955000000006
H      38.250900000000001     39.108600000000010     43.107455000000002
N      34.654099999999993     38.933100000000010     37.682855000000004
O      37.675399999999996     41.836300000000008     39.224954999999994
O      38.029499999999999     37.521000000000001     31.331634999999999
O      33.801299999999998     40.411900000000003     33.340525000000000
