5

C      38.273399999999995     38.207549999999983     38.127149999999986
H      37.255900000000011     38.529749999999993     37.949249999999992
H      38.517000000000010     38.552650000000000     37.021150000000006
H      38.196600000000004     37.154849999999996     38.323549999999997
H      38.744099999999989     38.845150000000004     38.978849999999994
