53

C      40.940649999999991     42.675349999999995     37.821099999999987
C      41.884450000000001     41.489850000000004     35.054800000000007
C      40.048849999999995     38.478150000000007     40.643800000000006
C      35.312850000000005     38.446150000000003     38.651900000000005
C      36.781050000000000     35.144149999999996     40.615900000000003
C      38.953449999999997     39.270450000000004     39.941099999999999
C      40.188749999999999     37.104650000000007     41.270599999999995
C      36.491949999999996     39.200550000000007     39.019600000000004
C      38.193950000000001     35.280249999999995     41.110699999999994
C      35.292949999999998     37.120650000000005     39.166400000000003
C      35.752350000000000     34.164350000000006     40.251200000000004
C      37.675249999999998     38.519150000000003     39.798099999999998
C      38.876349999999995     36.490449999999996     40.922499999999999
C      36.369350000000004     36.515949999999997     40.084699999999998
C      37.725449999999995     37.236650000000004     40.168900000000001
C      41.478649999999995     38.516350000000003     39.688200000000002
C      42.154949999999999     39.338850000000001     38.815599999999996
C      39.049749999999996     40.686850000000007     39.449999999999989
C      37.809849999999997     41.226050000000001     39.009799999999998
C      38.865150000000000     41.771750000000004     38.505699999999997
C      36.655650000000001     40.578950000000006     38.559099999999987
C      40.462049999999998     38.137850000000007     42.359099999999998
C      41.627949999999998     36.412149999999997     41.101599999999991
C      42.352150000000002     37.344150000000006     40.048499999999997
C      34.429949999999998     34.558650000000007     39.714099999999995
C      42.544549999999994     36.221150000000002     38.749599999999994
C      41.223849999999999     38.735050000000001     38.140200000000000
H      41.895649999999996     41.078250000000004     33.015100000000004
H      43.432549999999999     40.935250000000003     38.069999999999993
H      43.225850000000001     39.651050000000005     32.810600000000001
H      42.847950000000004     42.443250000000006     36.722799999999999
H      32.567450000000001     34.432850000000002     39.421599999999998
H      34.611550000000001     38.808450000000008     37.913399999999996
H      38.709550000000000     34.384349999999998     41.386099999999999
H      36.115949999999991     33.120449999999998     40.212499999999999
H      35.881750000000004     41.142450000000004     37.947200000000002
H      40.742550000000001     39.064650000000007     42.730799999999995
H      40.184149999999995     37.789650000000002     43.372300000000003
H      42.311449999999994     36.194950000000006     41.952900000000000
H      41.473750000000003     35.485349999999997     40.419000000000004
H      43.359450000000002     37.638850000000005     40.392299999999999
H      41.658949999999997     36.355549999999994     38.134799999999998
H      42.937349999999995     35.874249999999996     37.745100000000001
H      42.420449999999995     35.082149999999999     39.088000000000001
H      41.081449999999997     38.831050000000005     37.000999999999998
O      42.137049999999988     42.472350000000006     37.963499999999996
O      42.806649999999998     41.316550000000007     35.851999999999997
O      41.113549999999989     41.647150000000003     34.091700000000003
O      39.721849999999996     42.879550000000002     37.755800000000001
O      33.321849999999998     34.166549999999994     40.235199999999992
O      42.610949999999988     40.743449999999996     38.933500000000002
O      42.197949999999992     39.717450000000007     32.627699999999997
S      34.191749999999999     35.902450000000002     38.430599999999998
