42

C      38.649999999999991     37.354799999999997     39.314999999999991
C      38.611000000000004     36.339899999999986     38.321399999999997
C      35.824400000000004     39.743700000000004     37.676400000000001
C      36.204500000000003     39.504800000000003     34.541300000000000
C      37.631000000000000     38.387799999999999     39.074300000000001
C      37.894199999999998     36.612499999999997     37.083500000000001
C      37.328600000000002     40.016300000000001     37.494699999999995
C      36.808799999999998     38.120099999999994     35.256399999999999
C      36.882500000000000     38.773799999999994     37.874099999999991
C      37.094700000000003     37.849800000000002     36.737499999999997
C      39.590100000000000     37.381399999999999     40.557800000000000
C      40.692800000000005     36.499799999999993     40.176800000000000
C      40.825200000000002     35.536600000000007     38.989300000000000
C      39.810800000000000     35.446700000000007     38.148199999999996
C      35.458200000000005     38.885700000000000     35.526699999999998
C      34.789700000000003     39.695700000000002     36.714999999999996
C      33.380000000000003     37.464399999999998     36.639299999999999
C      36.447000000000003     40.521600000000007     33.513899999999992
C      40.016400000000004     37.725499999999997     41.868999999999993
C      42.674699999999994     35.104799999999997     41.512399999999992
C      41.365899999999996     37.315700000000007     42.233199999999997
C      41.652600000000000     36.203599999999994     41.238000000000000
C      37.811700000000002     40.809799999999996     33.072699999999998
C      34.167300000000004     40.992199999999997     36.173299999999998
C      33.607100000000003     38.723900000000000     37.099100000000000
H      35.634300000000003     41.353999999999999     33.441299999999998
H      37.346900000000005     38.870900000000006     40.131599999999992
H      37.969500000000004     35.844499999999996     36.295800000000000
H      37.815800000000003     40.391699999999986     36.608399999999996
H      36.572800000000001     37.109700000000004     34.603800000000000
H      41.784099999999988     35.099900000000005     39.136299999999999
H      39.657399999999996     34.901899999999998     37.201699999999995
H      32.733499999999999     36.931100000000001     37.356899999999996
H      39.337099999999992     38.085300000000004     42.657599999999988
H      41.747600000000006     37.449700000000007     43.279800000000002
H      34.769399999999997     41.815299999999993     36.418999999999997
H      33.785800000000002     41.299700000000001     37.276299999999999
H      33.629700000000000     41.605300000000000     35.509799999999998
H      33.824900000000000     36.962500000000006     35.423400000000001
H      32.904900000000005     39.222899999999996     37.937999999999995
O      38.917800000000000     40.876700000000000     32.720199999999998
O      43.266500000000001     34.184700000000007     41.501699999999992
