9

C      37.978249999999996     38.161799999999999     38.742350000000002
C      38.392449999999997     36.936500000000009     38.421750000000010
C      37.950450000000004     38.940299999999993     37.314850000000007
H      37.461449999999999     38.625199999999992     39.638750000000002
H      38.632550000000002     36.173000000000002     39.281550000000010
H      38.717949999999995     36.729799999999997     37.315649999999998
H      37.879750000000001     38.376199999999997     36.361249999999998
H      38.909649999999999     39.477500000000006     37.100950000000005
H      37.090350000000001     39.826999999999998     37.097350000000006
