5

C      38.021814999999989     38.054749999999999     38.066249999999997
H      37.423784999999995     38.753050000000002     37.235249999999994
H      38.849505000000001     38.444649999999996     38.671250000000001
H      38.123704999999994     37.246949999999998     37.338250000000016
H      37.150494999999999     37.984750000000005     38.764750000000006
