5

C      38.216932399999990     37.892649999999989     37.906799999999997
H      37.205232399999986     38.240849999999995     38.369500000000002
H      38.794767600000014     38.800150000000002     37.522199999999998
H      38.709532399999986     37.415149999999997     38.799599999999998
H      37.663432399999991     37.199849999999998     37.200400000000002
