51

C      38.890900000000002     43.541600000000003     35.352449999999990
C      38.081100000000006     36.311399999999999     43.477549999999994
C      37.878000000000000     35.527200000000008     42.207149999999992
C      38.840200000000010     43.911699999999996     36.834449999999997
C      38.652799999999999     42.078600000000009     35.376349999999995
C      37.721100000000007     37.693799999999996     43.173749999999998
C      37.624700000000004     36.425400000000003     39.866549999999989
C      37.898300000000006     37.592900000000007     38.982949999999988
C      38.718000000000004     42.462400000000009     38.902650000000001
C      38.030799999999999     40.039500000000004     37.262749999999990
C      38.128900000000002     40.749400000000009     41.050049999999999
C      37.942500000000010     36.652200000000001     41.342949999999995
C      38.465500000000006     42.562400000000004     37.474150000000002
C      38.301600000000008     41.354900000000008     36.617549999999994
C      38.076000000000008     41.365200000000009     39.722449999999995
C      37.806600000000003     38.136400000000009     41.791649999999997
C      38.216300000000004     38.978400000000008     39.457149999999999
C      38.184600000000003     40.190100000000008     38.690349999999995
C      37.907899999999998     39.360200000000006     41.005349999999993
C      37.914500000000004     37.453900000000004     37.406450000000000
C      38.002200000000002     38.690000000000005     36.637749999999990
C      37.532300000000006     36.163200000000003     36.897150000000003
C      37.065500000000000     36.280800000000006     35.468550000000000
C      37.340000000000003     37.403900000000000     34.582749999999997
C      38.053899999999999     38.437100000000008     35.085749999999997
C      37.066000000000003     34.951700000000002     37.600349999999992
C      37.272599999999997     35.155200000000001     39.048049999999996
C      36.665500000000009     35.007200000000005     34.762149999999991
C      36.671599999999998     34.832900000000009     33.240349999999999
C      37.065300000000008     36.035500000000006     32.588649999999994
C      37.406900000000007     37.337800000000009     33.248849999999997
C      36.879900000000006     33.660700000000006     36.906050000000000
C      36.629000000000005     33.817000000000000     35.498649999999991
C      37.109600000000000     34.089500000000008     40.086250000000000
C      37.508300000000006     34.315300000000008     41.401649999999989
H      39.158700000000010     44.320899999999995     34.646349999999998
H      39.473399999999998     44.721200000000003     37.283949999999990
H      38.518700000000010     41.536100000000005     34.430249999999994
H      37.843299999999999     38.337100000000007     44.041549999999987
H      38.036799999999999     35.818300000000008     44.464050000000000
H      39.269900000000007     43.378700000000009     39.338149999999999
H      37.956000000000003     41.190600000000003     42.041950000000000
H      38.786300000000011     38.964199999999998     34.454450000000001
H      36.526600000000002     33.897500000000008     32.607650000000000
H      36.820200000000000     35.993899999999996     31.535950000000000
H      37.866000000000000     38.127100000000006     32.638150000000003
H      36.653100000000009     32.533200000000008     37.103249999999996
H      36.656199999999998     33.110700000000008     39.762250000000002
H      37.320100000000011     33.521900000000009     42.000749999999996
H      36.772800000000004     31.278799999999997     35.880149999999986
S      36.529000000000011     32.079799999999999     34.723450000000000
