46

C      38.397949999999994     38.475249999999996     36.759999999999991
C      39.414349999999999     38.256550000000004     35.801600000000001
C      38.587450000000004     33.950950000000006     37.679800000000000
C      37.903550000000010     37.515749999999997     37.825999999999993
C      39.862250000000003     36.822149999999993     35.520299999999999
C      37.843249999999998     35.183350000000004     38.299599999999991
C      39.365850000000009     34.149349999999998     36.349499999999999
C      38.327449999999999     36.199849999999998     37.245799999999988
C      39.215249999999997     35.763249999999999     36.166399999999996
C      37.914150000000006     39.892249999999997     36.990299999999991
C      38.414850000000001     40.941549999999992     36.113199999999999
C      39.328850000000003     40.750150000000005     34.914099999999998
C      39.964849999999998     39.434350000000002     34.896899999999988
C      36.836150000000004     40.064750000000004     37.983100000000000
C      36.318049999999999     41.382949999999994     38.088600000000000
C      36.322150000000008     42.253050000000002     36.814199999999992
C      37.477050000000006     42.182649999999995     35.923200000000001
C      36.268850000000000     39.136150000000001     38.997599999999991
C      36.913449999999997     37.843150000000001     38.882100000000001
C      36.597049999999996     36.757649999999998     39.742399999999996
C      37.273250000000004     35.558250000000001     39.495100000000001
C      37.451650000000001     43.039549999999998     34.622099999999996
C      36.947949999999992     34.455550000000002     40.528099999999995
C      35.519250000000000     36.904250000000005     41.050999999999988
C      38.617649999999998     32.732550000000003     38.372099999999989
C      40.679149999999993     33.502350000000000     35.915299999999995
H      38.450450000000004     42.829949999999997     34.051600000000001
H      40.610250000000008     36.537750000000003     34.711599999999997
H      38.639650000000003     33.575950000000006     35.722799999999999
H      39.363550000000004     41.426349999999992     34.066399999999994
H      40.387749999999997     39.566450000000003     33.844600000000000
H      35.559350000000009     41.337750000000000     38.640099999999990
H      35.487850000000009     42.989249999999998     36.726299999999995
H      35.521250000000009     39.492949999999993     39.658399999999993
H      36.421750000000003     33.755750000000006     39.831399999999995
H      36.185249999999996     35.024850000000001     41.233599999999988
H      35.072350000000000     37.877549999999999     41.163599999999988
H      34.622349999999997     36.102850000000004     41.260699999999993
H      36.150450000000006     36.799749999999996     42.155400000000000
H      38.937250000000006     31.948650000000001     37.767699999999991
H      38.923450000000003     32.771349999999998     39.487099999999991
H      40.528750000000002     32.428750000000001     35.469400000000000
H      41.203450000000004     34.148750000000000     35.297999999999995
H      41.377650000000003     33.123750000000001     36.673099999999998
H      37.713949999999997     33.918250000000000     41.079299999999996
O      36.845050000000001     44.051349999999999     34.523099999999999
