8

C      38.688199999999995     37.888199999999998     37.505149999999986
C      37.457800000000006     38.123299999999986     38.340950000000007
H      39.296800000000005     38.866699999999994     37.305350000000004
H      38.783699999999996     37.202399999999997     36.658850000000001
H      39.128600000000006     37.042500000000004     38.132450000000006
H      37.774900000000002     38.414500000000004     39.341149999999999
H      36.703199999999995     38.957499999999996     38.064149999999998
H      36.790500000000009     37.177899999999994     38.432249999999996
