6

C      38.584649999999989     37.728699999999996     37.884050000000002
C      37.433349999999997     38.189300000000003     38.255850000000009
H      39.522350000000003     38.169600000000003     38.365050000000011
H      38.695250000000001     37.110800000000005     36.912649999999999
H      37.536749999999998     38.889199999999995     39.087350000000001
H      36.477649999999997     37.722400000000007     38.221950000000007
