5

C      38.211749999999995     38.108799999999995     38.166399999999996
H      37.157450000000011     38.374300000000005     38.054699999999997
H      38.842549999999989     37.934300000000000     37.259100000000004
H      38.011950000000013     36.910499999999999     38.740899999999996
H      38.777750000000012     39.089500000000001     38.596699999999998
