119

C      38.715949999999999     38.266399999999990     42.114584999999991
C      39.113749999999996     36.940799999999996     42.288714999999989
C      39.618050000000004     39.146299999999997     41.491704999999996
C      40.141250000000007     36.184899999999999     41.543384999999994
C      46.395049999999998     35.574399999999997     37.034244999999984
C      45.196950000000008     34.913899999999998     37.438445000000002
C      47.108149999999995     38.335599999999999     37.039144999999991
C      46.343050000000005     39.555599999999984     37.329544999999989
C      43.008050000000004     34.655699999999996     38.735844999999998
C      41.880950000000006     34.962800000000001     39.708445000000005
C      41.970849999999999     39.394000000000005     40.339414999999988
C      43.873149999999995     39.789199999999994     38.627245000000002
C      46.389950000000006     37.081299999999999     37.147745000000000
C      43.897349999999996     35.470299999999995     38.090044999999989
C      41.000850000000007     38.553299999999993     40.996178999999998
C      45.034650000000006     39.014299999999992     37.819645000000001
C      42.889250000000004     38.896899999999988     39.265644999999999
C      41.146350000000005     37.121899999999997     40.897964999999985
C      42.050450000000005     36.401300000000006     39.987545000000011
C      45.177950000000003     37.566500000000005     37.920144999999977
C      42.817650000000008     37.415999999999997     39.245744999999985
C      43.947150000000001     36.860500000000002     38.341744999999989
C      40.175550000000008     34.648099999999999     41.580154999999998
C      41.021350000000005     34.135599999999997     40.578770999999996
C      37.382450000000006     38.870099999999994     42.740224999999995
C      36.426850000000002     37.802900000000008     43.122504999999997
C      36.747650000000007     36.428799999999995     43.328544999999998
C      38.021950000000004     36.112099999999998     42.961134999999992
C      38.044850000000004     34.613600000000005     42.826244999999993
C      39.119450000000001     33.844200000000001     42.374494999999996
C      39.557449999999996     40.681500000000000     41.466474999999996
C      38.468750000000007     40.989900000000006     42.764394999999986
C      37.025450000000006     40.332599999999985     42.750244999999993
C      38.050350000000002     42.517800000000008     42.836544999999994
C      48.608149999999995     37.634699999999995     36.722644999999986
C      34.831050000000005     37.774499999999989     43.347064999999994
C      36.815850000000005     34.285399999999996     43.773274999999991
C      31.153150000000000     37.737600000000000     37.830045000000005
C      38.522750000000002     36.487200000000001     37.375044999999986
C      31.170550000000006     37.910499999999999     36.364444999999989
C      38.488650000000007     36.255600000000001     35.958244999999998
C      32.417050000000003     37.517499999999998     38.525444999999984
C      37.396549999999998     36.477699999999999     38.267344999999992
C      32.175349999999995     37.918599999999998     34.057244999999980
C      37.197250000000004     36.534599999999998     33.867244999999983
C      33.403850000000006     37.412400000000005     33.367044999999990
C      35.963950000000004     36.513000000000005     33.252844999999994
C      34.955750000000002     36.939599999999999     38.405445000000000
C      32.385850000000005     37.808099999999996     35.632244999999998
C      37.268950000000004     36.604699999999994     35.416044999999983
C      34.738650000000007     37.161100000000005     34.008444999999995
C      33.716650000000001     37.336900000000000     37.743245000000002
C      36.075550000000007     36.497000000000000     37.618645000000001
C      33.652350000000006     37.570800000000006     36.327244999999991
C      36.069950000000006     36.829599999999999     36.239145000000001
C      34.870350000000002     37.313699999999997     35.411544999999975
C      29.858750000000008     37.768200000000007     38.760745000000014
C      28.616350000000004     38.116799999999998     38.036445000000008
C      28.594750000000005     38.386199999999988     36.633144999999999
C      29.886649999999999     38.339199999999991     35.926944999999975
C      29.936049999999998     38.684700000000007     34.566544999999991
C      31.013050000000007     38.463499999999996     33.556145000000008
C      39.923949999999998     36.888900000000007     37.924744999999987
C      40.992950000000008     36.752099999999999     36.947944999999997
C      40.880949999999999     35.989100000000008     35.804944999999996
C      39.484449999999995     35.446099999999987     35.528244999999991
C      29.934850000000004     37.549399999999991     40.139716699999994
C      28.727350000000008     38.056700000000006     40.881222999999999
C      27.634049999999998     38.605699999999999     40.167569199999996
C      27.536649999999998     38.641699999999986     38.801745000000004
C      31.283449999999998     37.387299999999996     40.753993999999999
C      32.551450000000003     37.288300000000007     40.035244999999989
C      33.720650000000006     37.506299999999996     40.869334999999992
C      34.895650000000003     37.597200000000001     39.887245000000000
C      30.801150000000003     38.299800000000005     32.100744999999975
C      34.005050000000004     36.887799999999999     42.253344999999996
H      36.148550000000007     40.628100000000003     42.133904999999999
H      47.278050000000007     34.887699999999995     36.941245000000009
H      45.274850000000001     33.763400000000004     37.526244999999975
H      46.466950000000004     40.589300000000009     36.981944999999982
H      43.292550000000006     33.781700000000001     38.502444999999987
H      41.837949999999999     40.629500000000007     40.246110999999992
H      40.955350000000003     33.001000000000005     40.569437999999998
H      39.131650000000008     32.824200000000005     42.509274999999995
H      40.656650000000006     40.902900000000002     41.425584999999998
H      39.018150000000006     40.775899999999993     40.580966999999994
H      38.778150000000004     41.100200000000001     43.597444999999993
H      36.468550000000008     40.402299999999997     43.639564999999990
H      37.026850000000003     42.834800000000001     42.816434999999991
H      38.141050000000007     42.760999999999996     43.783244999999994
H      39.018150000000006     43.175799999999995     42.780984999999994
H      48.701650000000008     36.822500000000005     37.489244999999997
H      49.104750000000003     37.316699999999997     35.671944999999987
H      49.384749999999997     37.900299999999987     37.415745000000015
H      34.414950000000005     38.840299999999985     43.214484999999996
H      34.890650000000008     37.449300000000008     44.343214999999994
H      37.160750000000007     34.197299999999998     44.924154999999985
H      36.397350000000003     33.282799999999995     43.486414999999987
H      37.249050000000004     36.614399999999989     39.333644999999983
H      38.034850000000006     36.050300000000007     33.372045000000000
H      33.664950000000005     37.460300000000004     32.265045000000008
H      35.883650000000003     36.618200000000002     32.176045000000009
H      27.622150000000001     38.555999999999997     36.021244999999979
H      29.127650000000003     39.166499999999999     33.912044999999999
H      40.036350000000006     37.093400000000003     38.995744999999992
H      41.698350000000005     35.402200000000008     35.434545000000014
H      39.348949999999995     34.701899999999995     34.771945000000002
H      28.793250000000004     37.685600000000008     41.998534999999997
H      26.803950000000004     38.804899999999989     40.922875999999995
H      26.615250000000003     38.799299999999988     38.181145000000001
H      31.472350000000002     37.333900000000000     41.846694999999997
H      33.619150000000005     38.640699999999995     41.281064999999998
H      34.891850000000005     38.609300000000005     39.536544999999975
H      35.813250000000004     37.580200000000005     40.387054999999997
H      33.073950000000004     36.811599999999999     42.918194999999997
H      34.433550000000004     35.912800000000004     42.146834999999996
O      35.847550000000005     35.547300000000007     43.342074999999987
O      43.744650000000000     40.983699999999999     38.636944999999983
O      30.454950000000000     37.962699999999998     31.075845000000015
