5

C      37.948049999999995     38.045199999999994     37.881149999999991
H      38.691749999999999     38.404800000000002     37.289750000000005
H      37.308250000000001     37.262000000000000     37.672249999999998
H      38.635750000000002     37.210200000000000     38.477049999999991
H      37.592649999999999     38.789800000000000     38.710249999999995
