5

C      38.046999999999997     37.918549999999996     38.138349999999996
H      37.627300000000005     38.790849999999999     38.689949999999996
H      38.730999999999995     37.556549999999994     38.805250000000001
H      38.230300000000000     38.471550000000001     37.194749999999999
H      37.269000000000005     37.209150000000001     38.131149999999991
