43

C      36.956284999999994     37.681999999999995     37.415649999999999
C      36.359684999999999     36.450800000000001     36.881950000000003
C      33.050264999999996     39.613800000000005     37.637749999999997
C      36.420285000000007     38.635200000000005     38.492250000000013
C      34.935184999999990     36.471599999999995     36.755250000000004
C      34.147945000000007     39.943200000000004     38.341150000000013
C      34.942485000000005     38.582100000000004     38.145349999999993
C      34.217875000000006     37.786299999999997     37.198950000000011
C      38.401485000000008     37.683300000000003     37.619250000000008
C      39.411484999999999     36.576700000000002     37.197250000000011
C      38.911285000000007     35.458100000000002     36.555750000000003
C      37.328985000000003     35.405500000000004     36.481350000000006
C      39.014085000000009     38.987199999999994     38.027050000000017
C      40.474885000000000     39.078099999999999     37.750550000000004
C      41.234985000000009     37.935800000000000     37.474450000000004
C      40.942285000000012     36.683700000000002     37.219650000000016
C      38.480185000000006     39.959199999999996     38.982950000000017
C      37.000084999999999     39.849199999999996     39.156650000000013
C      36.049085000000005     40.899700000000003     39.656550000000010
C      34.973785000000007     41.207500000000003     38.647650000000013
C      34.012814999999989     35.398099999999999     36.820250000000016
C      37.085284999999999     34.367500000000000     35.503050000000016
C      42.642784999999989     38.264499999999991     37.342450000000014
C      36.650185000000008     42.073899999999995     40.479950000000017
C      32.895184999999998     34.963300000000004     37.688749999999999
C      33.667545000000004     33.973700000000001     36.875750000000011
H      32.343615000000000     40.281199999999991     37.016750000000016
H      39.505285000000001     34.701400000000000     35.910550000000015
H      40.759185000000002     40.079299999999996     37.740250000000003
H      41.664584999999988     35.895299999999992     37.364550000000008
H      38.920085000000000     40.960200000000000     39.287149999999997
H      35.646985000000001     40.346600000000002     40.634850000000000
H      34.584385000000012     42.172100000000000     39.063850000000016
H      35.428584999999998     41.688899999999997     38.025650000000013
H      36.013185000000007     34.094300000000004     34.959550000000007
H      37.917585000000003     33.938700000000004     35.129650000000012
H      37.703185000000005     41.983899999999998     41.040449999999993
H      35.813585000000003     42.697000000000003     40.940749999999994
H      37.061185000000009     42.845799999999997     39.731749999999991
H      32.776335000000003     35.829200000000000     38.442250000000016
H      33.980405000000005     33.154200000000003     36.560450000000003
N      33.160685000000001     38.573399999999999     36.646850000000001
O      43.656385000000000     38.727799999999995     37.273050000000012
