5

C      37.233249999999998     38.038199999999996     37.261530999999991
C      37.933449999999993     39.052700000000002     37.886318000000003
H      38.259450000000001     38.911699999999989     38.891397999999995
H      38.941050000000004     38.863900000000001     37.253985999999998
O      37.058949999999996     36.947299999999998     37.108602000000005
