9

C      37.814399999999992     37.238899999999994     36.992714999999990
C      38.430399999999999     37.695700000000002     38.439994999999996
C      38.653300000000002     38.966999999999999     38.667115000000010
H      38.229899999999994     38.027699999999989     36.308885000000004
H      38.326000000000001     36.194000000000003     36.707485000000005
H      38.640300000000003     36.939200000000000     39.095754999999997
H      36.635200000000005     37.322299999999998     37.401955000000001
H      39.364799999999995     39.677999999999990     39.691114999999996
H      38.432399999999994     39.805999999999997     38.053355000000010
