79

C      41.263899999999992     35.811255000000003     43.017319999999991
C      40.019199999999998     35.775005000000007     42.228029999999997
C      38.536600000000000     35.609835000000004     41.784009999999995
C      41.137099999999997     36.605365000000006     41.809299999999993
C      36.789699999999996     35.896915000000007     45.440149999999996
C      37.311399999999999     35.635775000000010     42.776579999999989
C      36.504699999999993     35.771384999999995     43.916499999999999
C      36.241399999999999     36.585625000000007     42.787719999999993
C      41.804800000000000     37.512205000000009     44.698549999999997
C      41.608300000000000     36.097435000000004     44.242809999999999
C      41.577099999999987     36.424435000000003     45.730349999999987
C      41.076999999999998     38.111085000000003     41.593059999999994
C      42.520799999999994     38.211865000000003     42.201129999999999
C      42.025199999999991     38.713185000000010     43.688229999999997
C      40.708799999999997     37.184455000000000     46.450449999999989
C      38.551800000000000     34.281225000000006     41.034969999999994
C      41.187100000000001     38.624965000000003     40.179239999999993
C      40.287699999999994     38.332695000000001     38.731849999999994
C      37.914099999999998     35.691415000000006     40.347009999999997
C      35.262699999999995     38.506145000000004     37.751949999999994
C      34.722099999999998     37.500745000000009     36.788190000000000
C      37.142000000000003     40.347995000000012     33.338350000000005
C      36.311099999999996     39.405265000000000     32.555349999999990
C      36.169599999999996     39.556625000000011     37.174959999999999
C      34.484099999999998     37.693055000000001     35.367727999999993
C      36.998500000000000     40.392295000000004     34.816311999999996
C      35.477799999999995     38.538274999999999     33.437750000000008
C      36.064199999999992     39.644475000000000     35.642629999999997
C      35.275399999999998     38.708674999999999     34.855483999999997
C      35.264800000000001     38.207554999999999     39.212359999999997
C      34.361299999999993     37.140715000000000     39.598879999999994
C      33.642899999999997     36.304225000000002     38.559439999999995
C      33.822899999999997     36.397305000000003     37.139969999999998
C      37.430500000000002     41.596695000000011     31.179449999999989
C      36.750399999999999     40.798794999999998     30.245449999999991
C      36.138299999999994     39.717365000000001     31.055349999999997
C      36.616099999999996     38.865585000000010     39.606719999999989
C      36.791199999999996     38.609324999999998     41.029469999999989
C      35.740899999999996     37.668775000000011     41.799159999999986
C      34.487999999999992     36.712194999999994     41.098139999999994
C      37.432200000000002     39.884115000000008     39.190459999999995
C      37.307200000000002     40.237994999999998     37.777169999999998
C      37.841000000000001     39.140625000000000     41.974059999999994
C      35.818099999999994     38.753145000000004     30.047750000000001
C      34.094000000000001     37.996814999999998     41.876079999999995
H      37.844499999999996     36.378135000000000     45.706849999999996
H      38.218499999999992     39.881405000000001     39.864659999999986
H      36.532800000000002     34.848955000000004     45.470949999999988
H      36.203799999999994     36.774725000000004     45.909250000000000
H      40.412499999999994     38.533595000000005     42.430159999999994
H      43.112299999999998     38.957895000000008     41.790729999999996
H      42.973299999999995     37.269914999999997     42.057379999999995
H      42.816399999999987     39.568084999999996     44.223539999999993
H      41.285699999999991     39.392965000000004     43.877969999999998
H      39.523599999999988     33.959025000000011     40.516790000000000
H      37.716900000000003     33.574804999999998     40.820989999999995
H      41.225899999999996     39.489215000000002     40.405819999999999
H      42.324599999999997     38.425035000000008     39.922229999999999
H      40.023399999999995     39.315645000000004     38.094819999999999
H      40.721899999999998     37.673525000000012     38.068299999999994
H      39.274600000000000     37.988665000000012     39.065469999999998
H      36.799699999999994     35.858095000000006     40.238829999999986
H      38.629100000000001     36.099065000000010     39.625859999999996
H      34.051099999999998     36.913075000000006     34.597502499999997
H      37.792399999999986     40.786995000000005     35.326859999999996
H      35.005299999999998     37.728115000000003     33.030250000000002
H      32.887700000000002     35.637075000000010     38.848839999999996
H      33.000399999999999     35.928214999999994     36.586179999999999
H      38.022699999999986     42.425195000000002     30.790550000000017
H      36.454400000000000     41.323995000000011     29.431649999999998
H      34.151899999999998     35.840284999999994     41.365779999999994
H      38.094199999999994     40.751995000000008     37.172019999999996
H      35.235100000000003     37.752565000000004     30.359349999999985
H      35.942000000000000     39.257185000000007     29.018150000000013
H      37.661200000000001     42.323595000000012     33.274949999999997
N      37.543599999999991     41.459495000000004     32.583549999999988
O      40.044199999999989     38.024915000000007     46.981849999999987
O      38.546799999999998     39.624854999999997     42.699049999999993
O      33.303799999999995     38.935155000000009     42.138219999999990
