71

C      40.314000000000000     39.695149999999998     41.193949999999994
C      45.437700000000000     40.060850000000002     42.033650000000002
C      41.481300000000005     40.498650000000005     41.238350000000004
C      44.057000000000002     40.700450000000004     41.826350000000005
C      40.338000000000001     38.243450000000003     41.252049999999997
C      40.670400000000001     35.190350000000002     40.302250000000001
C      45.376600000000003     38.627149999999993     41.906450000000000
C      39.119900000000008     34.453650000000003     39.728950000000005
C      42.935299999999998     39.935449999999996     41.301950000000005
C      41.490300000000005     36.161150000000006     40.842650000000006
C      41.643600000000006     37.648750000000007     41.174050000000001
C      42.004400000000004     35.149150000000006     40.139450000000004
C      44.270899999999997     37.769550000000002     41.342749999999995
C      42.936499999999995     38.447050000000004     41.025050000000000
C      41.381699999999995     42.047850000000004     41.196749999999994
C      43.201500000000003     34.729650000000007     39.496449999999996
C      39.498800000000003     41.026249999999997     36.792650000000002
C      40.546200000000006     41.067450000000001     37.931150000000002
C      30.795200000000005     35.125850000000000     37.137550000000005
C      37.673300000000005     36.857750000000003     39.302850000000007
C      31.455000000000005     33.989050000000006     36.543750000000003
C      36.695800000000006     35.675150000000002     39.644450000000006
C      31.487900000000000     36.346550000000001     37.375050000000002
C      35.260700000000007     35.288650000000004     39.589750000000002
C      38.062600000000003     35.592450000000007     39.815249999999999
C      34.389900000000004     36.461350000000003     39.888849999999998
C      38.252100000000006     38.738850000000006     37.202150000000003
C      33.541100000000007     37.756949999999996     37.355250000000005
C      34.827600000000004     37.868750000000006     36.759550000000004
C      36.838000000000008     37.108450000000005     35.237449999999995
C      32.840200000000003     36.533850000000001     36.908850000000001
C      37.963400000000007     37.549450000000000     37.954349999999998
C      38.685000000000002     39.896350000000005     36.511050000000004
C      33.406400000000005     35.369450000000001     36.052850000000007
C      39.836300000000008     41.940950000000001     35.651650000000004
C      35.275100000000002     37.106150000000007     35.638350000000003
C      34.533900000000003     35.946450000000006     35.291350000000001
C      37.615700000000004     37.469750000000005     36.557350000000000
C      34.072800000000001     37.340650000000004     34.597550000000005
H      39.313700000000004     40.265149999999998     40.889050000000005
H      46.371299999999998     40.545550000000006     42.395750000000000
H      43.442099999999996     41.603050000000003     42.139149999999994
H      39.550400000000003     37.778350000000003     40.883850000000002
H      46.120300000000007     37.880550000000007     42.085850000000001
H      44.530200000000008     36.646350000000005     41.071250000000006
H      41.010899999999999     42.301749999999998     42.263550000000002
H      42.349400000000003     42.749750000000006     40.971550000000001
H      39.136800000000008     34.214750000000002     38.651950000000006
H      40.949500000000008     42.424349999999997     38.177650000000000
H      38.278000000000006     39.708150000000003     35.470050000000001
H      41.927600000000005     40.987349999999999     37.627650000000003
H      40.195700000000002     40.423850000000002     38.673950000000005
H      33.585400000000007     33.307150000000000     35.741650000000000
H      40.510000000000005     42.308550000000004     40.673850000000002
H      39.367000000000004     33.532449999999997     40.564850000000000
H      30.834900000000005     36.972750000000005     37.835550000000005
H      39.793700000000008     41.345750000000002     34.741050000000001
H      29.628700000000002     35.355950000000000     37.301550000000006
H      30.743700000000004     33.148049999999998     36.677150000000005
H      34.721400000000003     34.613150000000005     39.013950000000001
H      33.095300000000002     38.284850000000006     38.173450000000003
H      35.635900000000007     38.469050000000003     37.320150000000005
H      37.176800000000007     36.219050000000003     34.828649999999996
H      33.186600000000006     37.897150000000003     35.154450000000004
H      34.076800000000006     36.759650000000001     33.604250000000000
H      37.098500000000008     37.917549999999999     34.340249999999997
H      37.079299999999996     37.791350000000001     40.007949999999994
N      32.921000000000006     34.107550000000003     36.113050000000001
O      44.276700000000005     34.472250000000003     39.156350000000003
O      40.602199999999996     42.851950000000002     35.849150000000002
O      33.867000000000004     37.413350000000001     40.219350000000006
