91

C      37.310649999999995     34.421239999999997     35.821049999999993
C      37.013249999999999     35.693639999999995     36.399850000000001
C      41.075650000000003     36.940440000000002     33.651450000000004
C      40.536950000000004     38.166040000000010     34.295550000000006
C      38.470450000000000     34.179639999999999     34.842850000000006
C      37.668450000000000     36.875940000000000     36.036249999999995
C      40.401450000000004     35.599640000000001     33.701550000000005
C      39.338550000000005     38.057244000000011     35.163150000000002
C      39.227550000000001     35.440639999999995     34.580150000000003
C      38.782750000000000     36.659439999999996     35.183850000000000
C      36.802849999999999     33.051539999999996     35.850349999999999
C      35.559650000000005     33.171540000000000     36.520450000000004
C      34.687350000000002     34.484039999999993     36.569550000000000
C      35.610849999999999     35.507839999999987     36.857950000000002
C      42.234750000000005     37.215556000000007     32.600149999999999
C      43.456949999999992     37.704412000000005     33.078850000000003
C      42.408750000000005     38.826370000000011     32.693650000000005
C      41.309449999999998     39.481330000000007     33.673650000000002
C      39.437749999999994     33.080540000000006     34.289950000000005
C      38.625850000000000     31.816440000000007     34.247350000000004
C      37.743849999999995     31.703239999999994     35.460250000000002
C      37.002450000000003     38.360980000000005     36.580149999999996
C      35.601050000000001     38.121350000000007     37.163650000000004
C      35.150550000000003     36.771940000000001     37.762949999999996
C      34.581750000000000     38.613650000000007     36.103349999999999
C      34.405550000000005     39.970670000000005     35.188749999999999
C      43.071249999999999     36.571739999999998     31.675150000000002
C      34.918250000000000     41.954509999999999     40.040750000000003
C      33.859949999999998     42.367400000000004     38.989950000000000
C      37.343550000000000     42.388600000000004     36.187749999999994
C      36.278649999999999     41.890570000000011     35.081250000000004
C      36.012350000000005     41.268100000000004     39.566650000000003
C      33.942350000000005     42.160679999999999     37.546649999999993
C      37.629449999999991     41.883800000000015     37.586449999999999
C      35.369350000000004     41.120020000000011     35.703649999999996
C      36.352950000000000     41.438050000000011     38.090750000000000
C      35.114650000000005     41.456600000000009     37.242049999999999
C      34.713149999999999     41.932780000000001     41.439750000000004
C      33.757950000000001     42.942870000000006     42.082750000000004
C      32.623950000000001     43.285440000000008     41.130150000000000
C      32.676850000000002     42.874950000000013     39.709550000000000
C      38.053550000000001     43.426080000000006     35.578550000000000
C      36.646650000000001     43.727470000000011     33.695950000000003
C      36.096050000000005     42.478060000000006     33.757049999999992
C      35.730049999999999     41.533210000000011     42.512250000000002
C      35.910949999999993     42.093460000000007     43.799450000000000
C      34.933750000000003     43.161529999999999     44.207649999999994
C      33.731349999999999     43.390040000000006     43.389350000000000
C      37.202750000000002     41.021250000000002     40.580449999999999
C      36.850850000000001     40.468610000000012     42.077150000000003
H      38.077149999999996     45.242460000000001     34.135649999999998
H      40.865950000000005     34.775740000000006     33.344350000000006
H      38.932950000000005     38.875380000000007     35.329450000000001
H      34.951650000000001     32.304939999999995     36.641650000000006
H      33.680550000000004     34.431239999999995     36.994549999999997
H      43.744050000000001     37.433859000000005     34.131250000000001
H      42.389250000000004     39.423740000000009     31.743850000000002
H      40.636150000000001     40.156170000000010     33.047250000000005
H      39.502549999999999     33.070439999999998     32.966350000000006
H      40.593350000000001     33.163739999999997     34.182950000000005
H      38.171849999999999     31.727340000000005     33.250949999999996
H      39.341049999999996     30.807139999999997     34.237150000000000
H      38.559850000000004     31.385140000000000     36.027350000000006
H      37.214250000000000     30.757539999999999     35.733750000000001
H      37.198950000000004     39.207910000000005     35.919950000000000
H      37.659150000000004     39.010610000000014     37.256450000000001
H      35.615349999999999     38.718470000000011     38.106049999999996
H      34.094050000000003     36.626439999999995     37.826550000000005
H      35.337949999999999     36.669639999999994     38.829549999999998
H      33.832950000000004     38.724390000000007     37.042750000000005
H      34.687049999999999     38.029731000000005     35.269449999999999
H      34.750250000000001     39.865500000000004     34.241150000000005
H      33.250650000000000     40.131689999999999     35.006749999999997
H      44.199349999999995     36.229340000000001     31.344450000000002
H      42.681549999999994     37.199884000000004     30.732150000000004
H      33.160350000000001     42.572370000000014     36.808149999999998
H      38.415149999999997     42.319370000000006     38.186250000000001
H      31.851750000000003     43.711140000000007     41.720349999999996
H      31.800650000000005     43.062550000000009     39.049649999999993
H      38.829849999999993     43.786920000000016     36.062049999999999
H      36.464350000000003     44.247909999999997     32.690449999999998
H      35.311650000000000     42.227570000000007     32.871150000000000
H      36.883450000000003     41.962740000000004     44.408749999999998
H      34.891849999999998     43.425510000000010     45.267849999999996
H      33.022049999999993     44.227180000000004     43.399850000000001
H      38.021449999999994     40.626370000000009     40.112250000000003
H      37.808450000000001     41.842610000000008     40.772449999999992
H      37.756550000000004     40.434180000000005     42.472550000000005
H      36.491349999999997     39.496879999999997     42.238250000000001
H      41.810850000000002     40.375370000000004     34.274150000000006
N      37.773549999999993     44.167150000000007     34.368350000000000
