44

C      40.173850000000002     39.343549999999993     36.677149999999997
C      37.705150000000003     37.137979999999999     36.673549999999999
C      36.322249999999997     37.649670000000000     37.275150000000004
C      39.683350000000004     38.727049999999998     41.147750000000002
C      38.169650000000004     38.955550000000002     41.532049999999998
C      39.008849999999995     37.159489999999998     37.601949999999995
C      36.357749999999996     38.323619999999991     38.512849999999993
C      39.871949999999998     37.929099999999998     39.995649999999998
C      37.169449999999998     39.221040000000002     40.564149999999998
C      38.895150000000001     37.814529999999998     38.974350000000001
C      37.526049999999998     38.391469999999998     39.398350000000001
C      37.334350000000001     37.007799999999996     35.259050000000002
C      36.277950000000004     36.751240000000003     34.275250000000000
C      35.091350000000006     36.777389999999997     35.030149999999999
C      35.131850000000000     37.351309999999998     36.401949999999999
C      40.925650000000005     39.126570000000001     41.848450000000000
C      40.288449999999997     39.252350000000000     43.185549999999992
C      38.945750000000004     39.480579999999996     43.605850000000004
C      37.781549999999996     39.501889999999996     42.857250000000001
C      38.763149999999996     36.679090000000002     34.866849999999999
C      38.957350000000005     36.291950000000000     33.352950000000000
C      37.840649999999997     36.357379999999992     32.522350000000003
C      36.389849999999996     36.486269999999998     32.900449999999999
C      40.053849999999997     36.382869999999990     35.669849999999997
C      40.227050000000006     36.632379999999998     36.953550000000000
C      40.757450000000006     37.894730000000003     37.221450000000004
H      41.034849999999992     40.079010000000004     36.503650000000000
H      39.531750000000002     39.801349999999992     37.657150000000001
H      39.538550000000001     39.328440000000001     35.671050000000001
H      35.356449999999995     38.578679999999999     38.676250000000003
H      40.855150000000009     37.635219999999997     39.520850000000003
H      36.193049999999999     39.772469999999998     40.613150000000005
H      34.019450000000006     36.793469999999999     34.579950000000004
H      34.355950000000007     37.811100000000003     36.738950000000003
H      41.980549999999994     39.039479999999990     41.567450000000001
H      40.693550000000002     39.219279999999991     44.238650000000000
H      36.859250000000003     39.676559999999995     43.152249999999995
H      39.872050000000002     36.044600000000003     33.044750000000001
H      37.754750000000001     36.321370000000002     31.329050000000002
H      35.426050000000004     36.407859999999999     32.364650000000005
H      40.649550000000005     35.920989999999996     37.505050000000004
H      41.702849999999998     38.105660000000000     37.912849999999999
H      41.192449999999994     36.192590000000003     35.287150000000004
H      38.728149999999999     39.703609999999998     44.670949999999998
