5

C      38.076850000000000     37.907799999999995     37.991449999999993
H      37.111549999999994     37.926299999999998     38.641849999999998
H      37.684649999999998     37.135400000000004     37.285449999999997
H      38.888450000000006     37.678000000000004     38.714550000000003
H      38.272649999999999     38.864599999999996     37.416550000000001
