42

C      34.761849999999995     37.104199999999992     37.950449999999989
C      34.056449999999998     37.312000000000005     36.799050000000001
C      39.104349999999997     36.037100000000002     34.717950000000002
C      35.500150000000005     37.034699999999994     36.621350000000000
C      38.973249999999993     37.427700000000002     35.559249999999999
C      36.333550000000002     38.183699999999995     35.782950000000000
C      36.729249999999993     39.279299999999999     35.124149999999993
C      35.755349999999993     35.600400000000000     36.346449999999997
C      37.730249999999998     38.221800000000002     35.189450000000001
C      38.913250000000005     37.243700000000004     36.981850000000001
C      40.201250000000002     37.854199999999992     36.026449999999997
C      35.155349999999999     36.924500000000002     39.431550000000001
C      39.939549999999997     39.227299999999993     38.274949999999990
C      40.431650000000005     39.927999999999997     39.538550000000001
C      40.752249999999989     39.076100000000004     36.807049999999997
C      42.546249999999986     39.832100000000004     41.611649999999990
C      39.686250000000001     38.723100000000002     39.442250000000001
C      38.634649999999993     38.552399999999999     38.102150000000002
C      42.315749999999994     40.324199999999998     40.177050000000001
H      38.474949999999993     35.236800000000002     35.102150000000002
H      32.935850000000002     37.404099999999993     37.002649999999996
H      39.902050000000003     35.588500000000003     35.283749999999998
H      35.689149999999998     34.665900000000001     37.012450000000001
H      36.825749999999999     35.427100000000003     36.429150000000000
H      35.384450000000001     35.394900000000000     35.196249999999992
H      39.034549999999996     36.278900000000000     37.576050000000002
H      40.910550000000001     37.362699999999997     35.337449999999997
H      34.805249999999987     37.639000000000003     40.131250000000001
H      34.568150000000003     36.039700000000003     39.817249999999994
H      40.959549999999993     40.052199999999992     36.297750000000001
H      35.655249999999995     39.467900000000000     33.356349999999999
H      39.033449999999988     36.168100000000003     33.503349999999998
H      36.192549999999997     36.581499999999998     39.570949999999996
H      35.159649999999985     40.933299999999996     34.099849999999996
H      40.497749999999996     40.420899999999996     40.621949999999998
H      41.929149999999993     38.998800000000003     36.996850000000002
H      39.455749999999995     38.193099999999994     40.333750000000002
H      37.925250000000005     39.084899999999998     37.849649999999990
H      43.064149999999998     39.830600000000004     39.495849999999997
H      42.832650000000001     41.334099999999999     39.851450000000000
N      35.887449999999987     40.036299999999997     34.205849999999998
O      42.559649999999991     39.388100000000001     42.643650000000001
