144

C      31.811660000000003     39.829449999999994     40.572256999999993
C      35.259850000000007     40.012149999999998     37.615157000000004
C      33.801800000000007     38.114550000000001     40.464357000000000
C      30.672238000000007     40.333550000000002     39.949857000000002
C      35.521700000000010     38.962150000000001     38.593356999999990
C      34.473470000000006     39.159849999999999     39.673257000000000
C      30.664059000000009     38.955850000000005     39.973057000000004
C      31.328279999999999     38.690050000000006     38.296157000000001
C      31.293210000000002     38.866549999999997     36.886157000000004
C      30.715250000000012     39.993650000000009     37.481656999999991
C      35.127420000000008     38.255950000000006     37.383457000000000
C      33.633280000000006     36.997150000000005     41.260257000000003
C      31.301380000000009     41.347349999999992     41.045056999999986
C      29.492300000000014     41.076450000000001     39.149956999999993
C      29.835421400000008     41.190649999999991     37.617257000000002
C      36.565800000000010     40.674949999999995     36.976156999999994
C      38.099080000000008     40.461850000000005     37.444456999999993
C      38.263180000000013     39.505249999999997     38.615557000000003
C      36.871900000000011     38.547450000000005     39.073456999999998
C      31.373790000000007     37.614349999999995     37.432556999999996
C      30.823830000000008     42.323650000000008     37.396656999999998
C      31.551349999999999     42.262250000000002     35.867456999999995
C      38.510820000000010     41.116549999999997     38.705857000000002
C      32.195970000000010     42.627950000000006     41.222957000000001
C      39.529820000000001     38.645450000000004     38.852356999999991
C      28.604100000000003     41.561149999999998     36.745556999999998
C      31.372030000000009     35.583950000000002     38.708956999999991
C      34.181270000000005     35.773050000000005     40.721856999999986
C      40.836700000000008     37.114850000000004     41.976857000000003
C      40.990500000000011     35.776350000000001     41.358456999999987
C      35.007170000000009     34.582350000000005     43.120156999999992
C      36.436650000000007     34.926850000000002     43.427257000000004
C      39.804020000000008     37.425850000000004     42.865656999999992
C      39.995200000000004     34.819450000000003     41.774256999999992
C      37.634220000000006     36.902149999999999     43.822056999999987
C      37.597850000000001     34.156250000000000     42.925956999999997
C      38.726070000000007     36.435350000000000     43.084756999999996
C      38.794810000000005     35.057350000000000     42.488256999999990
C      42.006300000000003     37.951050000000002     41.506956999999986
C      42.686800000000012     38.295650000000002     40.396456999999984
C      42.777900000000010     36.845649999999999     40.667357000000003
C      42.203000000000010     35.638050000000000     40.387056999999992
C      34.498610000000006     33.884950000000003     41.950556999999996
C      37.724860000000007     32.725750000000005     43.067856999999989
C      36.568650000000012     36.146650000000001     44.344256999999985
C      44.130099999999999     40.536349999999999     39.213557000000002
C      44.699400000000004     38.040250000000000     37.933657000000004
C      43.215600000000009     39.518750000000004     39.838356999999988
C      39.186960000000006     38.637549999999997     43.734557000000002
C      39.204370000000011     40.003949999999996     43.048257000000000
C      36.664690000000007     31.840650000000000     43.453956999999996
C      40.327800000000011     39.366850000000007     44.227156999999998
C      37.743980000000008     38.397849999999998     44.077656999999995
C      44.327500000000008     36.732249999999993     40.731356999999988
C      44.993100000000005     43.053150000000009     37.172556999999991
C      46.058600000000006     43.830649999999999     36.424756999999985
C      45.572600000000001     37.164450000000002     35.849556999999997
C      47.350600000000000     39.874950000000005     31.655056999999999
C      45.999400000000009     37.290250000000000     34.468757000000004
C      47.025400000000012     38.671250000000008     32.444556999999996
C      44.368300000000005     41.739849999999997     37.116757000000000
C      46.079700000000010     43.210749999999997     35.064256999999991
C      45.197400000000009     38.270249999999997     36.645557000000004
C      47.174700000000009     40.920650000000002     32.693956999999997
C      46.188900000000011     38.580149999999989     33.725756999999994
C      45.308300000000010     40.975749999999991     36.252356999999996
C      46.017600000000009     41.790950000000002     35.168856999999996
C      45.253100000000011     39.527049999999996     35.964556999999992
C      46.811700000000009     40.870150000000002     34.142057000000001
C      46.192599999999999     39.671050000000001     34.645656999999993
C      43.270000000000010     41.236650000000004     38.181556999999991
C      44.337699999999998     39.061749999999996     38.900956999999998
C      46.544600000000010     35.971250000000005     33.900456999999996
C      33.205330000000011     39.391750000000009     40.477056999999995
H      34.248610000000006     37.761050000000004     37.608556999999998
H      36.056180000000012     37.835349999999991     36.999557000000003
H      33.364910000000009     37.174550000000004     42.224856999999986
H      30.535682000000008     41.331650000000003     41.882056999999996
H      29.017299999999992     41.986849999999997     39.705256999999996
H      28.659100000000009     40.377649999999996     38.998756999999991
H      34.149480000000011     40.461950000000009     37.291457000000001
H      36.416340000000012     40.841250000000009     35.934756999999998
H      38.849390000000007     40.316149999999993     36.623556999999998
H      36.315670000000011     41.660150000000009     37.641956999999998
H      36.738590000000009     38.661450000000009     40.100557000000002
H      36.992710000000010     37.316950000000006     38.897157000000000
H      30.339277000000010     43.291249999999998     37.529756999999996
H      31.633220000000009     42.010150000000003     38.106256999999992
H      31.156440000000011     41.229750000000003     35.492556999999998
H      31.465710000000009     43.281550000000003     35.341056999999999
H      32.598140000000008     42.222650000000009     35.803057000000003
H      39.544440000000009     41.479750000000003     38.324756999999998
H      38.507740000000005     41.430349999999997     39.652556999999995
H      32.557480000000012     43.330550000000002     42.013456999999995
H      31.406530000000011     43.339950000000009     41.364656999999994
H      32.589390000000009     43.025550000000003     40.210356999999995
H      40.287900000000000     39.282550000000008     39.441357000000004
H      39.980700000000006     37.995849999999997     37.948256999999991
H      39.362949999999998     37.567749999999997     39.156356999999993
H      28.362100000000019     42.456350000000008     37.217057000000004
H      28.509600000000006     40.534849999999999     36.766456999999988
H      28.966400000000021     42.110350000000004     35.842256999999996
H      42.847800000000014     42.009050000000009     38.938257000000000
H      30.509578000000012     33.943550000000002     39.518956999999993
H      40.261700000000012     33.631350000000005     41.311056999999991
H      34.349380000000011     34.892050000000005     44.046556999999993
H      42.701800000000006     34.748750000000001     40.237756999999995
H      35.146150000000006     33.291650000000004     41.327956999999991
H      38.629730000000002     32.052149999999997     42.731057000000000
H      35.935110000000009     36.277650000000001     45.173903000000010
H      44.748800000000010     41.105350000000001     40.048156999999989
H      44.681400000000011     36.978950000000005     38.121656999999992
H      39.197640000000000     39.959750000000000     41.822556999999989
H      38.743890000000000     40.995249999999999     43.561957000000000
H      40.223100000000002     39.797750000000001     45.300143000000006
H      41.361300000000000     39.008150000000008     44.191656999999999
H      37.396890000000006     38.600150000000006     45.085625699999994
H      36.816220000000008     39.173650000000002     43.563856999999985
H      44.666400000000010     35.849650000000004     41.340556999999997
H      44.795400000000008     36.359650000000002     39.919256999999995
H      45.075900000000004     37.586050000000000     40.797556999999991
H      44.516900000000007     43.392950000000006     38.088957000000001
H      46.392700000000012     44.773249999999997     36.691456999999993
H      45.888700000000000     36.322450000000003     36.480356999999991
H      47.824300000000001     39.956649999999996     30.699856999999994
H      47.243900000000011     37.826950000000004     31.791056999999995
H      46.120200000000004     43.675249999999998     34.055856999999996
H      47.433700000000009     41.769449999999999     32.003656999999997
H      42.469400000000000     40.721149999999994     37.629056999999996
H      47.868000000000009     36.007950000000001     33.771456999999991
H      28.131999999999991     38.026850000000003     40.303156999999992
H      34.833700000000000     31.570450000000001     44.080057000000004
H      32.373470000000005     32.246849999999995     41.845956999999991
H      32.396050000000002     34.037450000000000     41.362956999999994
H      29.727500000000013     37.065650000000005     39.740456999999999
H      29.537400000000012     37.235750000000003     41.311256999999991
H      32.273070000000011     33.609950000000005     43.217156999999993
N      29.309299999999993     37.924250000000008     40.388257000000003
N      32.780940000000008     33.498249999999999     42.265456999999984
O      31.339180000000006     34.821550000000002     39.685257000000000
O      31.484140000000011     36.054050000000004     37.580156999999993
O      34.679070000000010     34.785150000000002     40.447357000000004
O      35.622430000000008     31.226750000000003     43.641856999999995
O      46.177000000000007     34.838750000000005     33.705956999999991
