45

C      37.724044999999990     38.113624999999999     36.741550000000004
C      38.710544999999996     36.946825000000004     36.739949999999993
C      40.231944999999996     39.111325000000008     40.954750000000004
C      37.832444999999993     39.204525000000004     37.719949999999997
C      40.134344999999996     37.209924999999998     37.362449999999995
C      39.234044999999995     39.816625000000002     40.085049999999995
C      40.721744999999984     38.126424999999998     39.920050000000003
C      38.916645000000003     39.181025000000005     38.745249999999999
C      39.941744999999983     38.080124999999995     38.678349999999995
C      36.402145000000004     37.771124999999998     36.148250000000004
C      36.114244999999997     36.524524999999997     35.519949999999994
C      37.054344999999998     35.476894999999999     35.572350000000000
C      38.410244999999989     35.867244999999997     35.982950000000002
C      35.387045000000001     38.718924999999999     36.455250000000007
C      34.192444999999992     37.784225000000006     36.008750000000006
C      34.658945000000003     36.731425000000002     35.025949999999995
C      33.615345000000005     36.525424999999998     36.545450000000002
C      35.425245000000004     39.778824999999998     37.531549999999996
C      36.700945000000004     40.075824999999995     38.108249999999998
C      37.087845000000002     41.177225000000007     39.226550000000003
C      38.209744999999998     40.930225000000007     40.299549999999996
C      41.213944999999995     36.274825000000007     37.566950000000006
C      40.782944999999984     34.985825000000006     36.858350000000002
C      39.726844999999997     34.777905000000004     35.709550000000007
C      42.148444999999995     35.385585000000006     36.493849999999995
C      34.071454999999986     39.864125000000001     37.955349999999996
H      40.515045000000001     39.529125000000008     41.906149999999997
H      41.624245000000002     38.035425000000004     40.306550000000001
H      36.600245000000001     34.647125000000003     34.857050000000001
H      33.541094999999999     38.374624999999995     35.373050000000006
H      34.290345000000002     36.549225000000007     34.093850000000003
H      36.301145000000005     40.842924999999994     39.811350000000004
H      36.945444999999992     42.211825000000005     38.737549999999999
H      38.643145000000004     42.067724999999996     40.809749999999994
H      37.746844999999993     40.901924999999991     41.235450000000000
H      41.385845000000003     36.035465000000002     38.810749999999999
H      40.437545000000000     38.161024999999995     36.568849999999998
H      40.648844999999994     34.267444999999995     37.805049999999994
H      39.661244999999994     33.788174999999995     35.508150000000001
H      39.911644999999993     35.396595000000005     34.726349999999996
H      33.650914999999998     38.907825000000003     37.556049999999999
H      33.668304999999989     40.869725000000003     37.660349999999994
H      33.958644999999990     39.606124999999992     39.089150000000004
O      43.072244999999995     35.537355000000005     35.752949999999998
O      32.927755000000005     35.571065000000004     36.784750000000003
