64

C      38.078850000000003     36.350623999999989     32.237819999999999
C      38.465049999999991     35.212754999999994     33.103710000000007
C      38.748949999999994     34.073454999999974     35.105880000000006
C      37.870249999999999     35.160954999999994     34.480400000000010
C      36.992350000000002     36.412481999999997     34.486810000000006
C      36.972849999999994     36.842574999999989     33.137309999999999
C      39.498750000000001     34.147555000000004     32.483220000000010
C      35.074649999999991     37.297244999999990     36.339469999999999
C      40.989849999999990     34.554155000000002     31.928360000000005
C      39.530450000000002     38.214674999999993     41.890810000000009
C      37.084149999999994     38.972944999999989     37.183900000000008
C      37.296149999999997     34.473255000000002     39.375709999999998
C      39.066049999999990     39.175524999999986     40.834910000000008
C      39.126049999999992     36.770131999999997     41.881410000000002
C      37.856949999999998     39.438254999999991     38.499409999999997
C      38.407349999999994     34.798854999999996     40.259309999999999
C      36.841949999999997     37.485584999999993     37.278689999999997
C      36.695949999999996     35.405455000000003     38.570010000000003
C      38.312249999999992     38.670464999999993     39.637510000000006
C      38.558149999999998     36.134344999999989     40.777209999999997
C      37.274149999999992     36.806181999999993     38.561109999999999
C      38.052749999999989     37.260354999999997     39.775309999999998
C      40.411349999999999     39.057874999999989     42.853310000000008
C      40.721750000000000     40.456694999999996     43.016210000000008
C      40.544150000000002     41.165614999999995     41.757010000000008
C      39.587850000000003     40.569654999999990     40.669110000000011
C      39.030649999999994     41.342624999999998     39.524110000000000
C      37.991149999999990     40.892484999999994     38.684609999999999
C      36.834549999999993     40.099064999999989     36.143770000000004
C      36.783549999999991     39.907234999999993     34.657280000000000
C      35.542850000000001     38.257164999999986     37.539560000000002
C      36.266449999999992     41.273824999999988     36.817980000000006
C      37.207650000000001     41.783314999999995     37.845640000000010
C      37.992549999999994     40.385854999999992     35.289009999999998
C      36.582650000000001     36.694706999999994     35.964070000000007
C      41.096750000000000     38.604254999999988     44.103310000000008
H      36.391549999999995     41.010834999999986     32.592269999999999
H      38.391350000000003     36.760394999999995     31.306400000000004
H      36.404749999999993     37.846814999999992     32.917529999999999
H      39.088650000000001     33.870154999999990     31.480700000000006
H      39.674349999999990     33.149455000000003     33.011200000000009
H      34.768649999999994     37.920934999999993     35.637920000000001
H      34.401550000000000     36.484982999999986     36.567540000000001
H      41.598450000000000     34.087654999999998     32.824000000000005
H      41.314749999999989     34.195154999999986     30.945790000000002
H      40.341449999999995     35.533954999999999     31.756380000000007
H      35.377150000000000     41.442814999999996     33.856110000000008
H      37.064250000000001     33.481554999999993     39.343910000000008
H      39.442749999999990     36.319078999999995     42.696910000000003
H      39.005849999999995     33.968754999999994     40.980109999999996
H      36.046250000000001     35.065854999999985     37.737909999999999
H      41.581449999999990     40.987524999999991     43.568410000000000
H      41.245149999999995     41.830094999999993     41.450209999999998
H      39.008150000000001     42.373004999999992     39.575710000000008
H      36.495949999999993     38.894544999999994     34.609320000000004
H      35.296750000000003     41.768964999999994     36.638579999999997
H      37.325549999999993     42.850544999999997     37.942560000000007
H      38.191350000000000     41.492854999999992     35.221520000000005
H      38.808449999999993     39.627764999999989     35.153210000000001
H      35.078249999999997     37.950134999999996     38.471510000000002
H      36.970749999999995     36.049340999999998     36.506940000000007
N      36.089749999999995     40.781094999999993     33.592289999999998
O      39.794449999999998     33.706055000000013     35.425700000000006
O      41.526249999999990     38.115964999999996     45.054209999999998
