82

C      46.012605000000001     40.528899999999993     35.933399999999992
C      47.061675000000008     41.234899999999996     36.941899999999997
C      33.883724999999991     37.206199999999995     39.899099999999997
C      34.997225000000007     36.904799999999994     38.753299999999996
C      29.021925000000017     33.538499999999992     38.799600000000005
C      33.644825000000012     34.854599999999991     38.443199999999997
C      32.829325000000011     36.328000000000003     40.243199999999995
C      34.581125000000000     35.832999999999998     37.985700000000001
C      32.730924999999999     35.057699999999997     39.524599999999992
C      31.398025000000011     34.342099999999995     39.251700000000007
C      30.018325000000004     34.209999999999994     39.520199999999996
C      33.681625000000018     38.573299999999989     40.355899999999998
C      35.861825000000010     39.049799999999991     39.163899999999998
C      31.521625000000007     36.603499999999997     41.133400000000002
C      31.167625000000008     38.061399999999992     40.983200000000004
C      32.377525000000013     38.955899999999986     40.801200000000001
C      34.735925000000002     39.526399999999995     40.029500000000006
C      30.309625000000018     38.523399999999995     39.869599999999991
C      30.120525000000015     38.720199999999991     41.794699999999992
C      28.910025000000012     37.740099999999984     42.427399999999999
C      32.350524999999998     36.423599999999993     42.604899999999986
C      36.112025000000003     37.784799999999990     38.543799999999997
C      30.296225000000000     33.866799999999991     38.223300000000002
C      39.865825000000001     39.973499999999987     36.357900000000001
C      38.902725000000004     39.304999999999993     35.455300000000001
C      36.649825000000014     41.553599999999989     39.527099999999997
C      39.935724999999998     41.050999999999988     37.546799999999990
C      37.597924999999996     39.764299999999992     35.942699999999995
C      38.238824999999999     41.602399999999989     39.271299999999997
C      36.677024999999993     40.094099999999997     38.602899999999998
C      38.532025000000004     41.180599999999998     37.940500000000000
C      37.409025000000000     40.404299999999992     37.286400000000008
C      41.207524999999997     39.746299999999991     35.811199999999999
C      41.285825000000003     38.785799999999995     34.668700000000001
C      40.226025000000007     38.148299999999992     33.904199999999996
C      38.910724999999999     38.471899999999991     34.288099999999993
C      42.306925000000007     40.376899999999992     36.636600000000001
C      43.645480000000006     40.054999999999993     36.280099999999997
C      43.820351000000002     39.099499999999992     35.148800000000001
C      42.773925000000006     38.581299999999999     34.388799999999996
C      42.027625000000000     40.662499999999994     38.025799999999997
C      40.877524999999999     41.291999999999987     38.635600000000004
C      40.588625000000008     42.023999999999987     39.910800000000002
C      39.217324999999995     42.377799999999993     40.217700000000001
C      43.490890000000000     37.659199999999998     33.400900000000000
C      44.701005000000002     40.721899999999991     36.948899999999995
H      47.719034999999998     40.208899999999986     37.114299999999993
H      46.275374999999997     39.603099999999998     35.754799999999996
H      48.028975000000003     41.488499999999988     36.154000000000003
H      47.247105000000005     41.931799999999996     37.895599999999995
H      28.359024999999995     32.879300000000001     38.280499999999996
H      33.646825000000000     33.914899999999996     37.780799999999999
H      35.027125000000005     35.379700000000000     37.024499999999989
H      30.817025000000008     35.956599999999995     40.805699999999995
H      32.103725000000004     40.064999999999998     41.097500000000004
H      29.205525000000002     38.503099999999989     39.808600000000006
H      30.588925000000003     39.461799999999997     39.423199999999994
H      27.971024999999997     37.959099999999992     41.945299999999996
H      28.718725000000013     37.830500000000001     43.566899999999997
H      29.126525000000022     36.688299999999998     42.239200000000004
H      30.700325000000007     39.379299999999986     42.367500000000000
H      32.759325000000004     35.364999999999995     42.471699999999998
H      31.578224999999996     36.459099999999992     43.328499999999991
H      33.327424999999998     37.098500000000001     42.700200000000002
H      34.369025000000008     40.634899999999988     40.120500000000000
H      37.052925000000002     37.506799999999984     38.128999999999998
H      30.600025000000002     33.839399999999991     37.179300000000005
H      45.865985000000002     40.783099999999990     34.808900000000001
H      35.607725000000002     41.577199999999991     38.930699999999987
H      36.760725000000015     39.714699999999993     35.164000000000001
H      36.494725000000010     41.362099999999998     40.581899999999997
H      40.591625000000015     37.599599999999995     33.021300000000004
H      37.979425000000006     38.050499999999985     33.769699999999993
H      44.921795000000003     38.636499999999998     35.110999999999997
H      42.911539300000008     40.722999999999999     38.404900000000005
H      41.270625000000010     42.703399999999988     40.419999999999995
H      38.902825000000000     43.120699999999999     40.781299999999995
H      43.606954000000002     38.147300000000001     32.433100000000003
H      44.448115000000001     36.997500000000002     33.806199999999997
H      42.988287000000007     36.682099999999991     33.314399999999999
H      45.021565000000002     40.144999999999996     37.915699999999994
H      44.644905000000001     41.659999999999997     37.613299999999995
