17

C      35.688849999999995     36.565449999999998     39.298449999999995
C      39.948650000000001     38.774349999999998     36.249450000000003
C      36.110250000000001     38.491150000000005     37.334050000000005
C      36.317250000000001     37.751750000000001     38.527249999999995
C      37.424950000000003     38.309449999999998     37.676150000000007
C      38.648549999999993     38.440049999999999     36.892350000000000
C      39.883250000000004     37.640149999999991     36.907550000000001
C      40.610849999999992     36.381650000000008     37.373550000000002
C      35.026650000000004     39.061949999999996     36.260150000000003
H      40.834850000000003     38.930750000000003     35.644449999999999
H      41.709850000000003     36.532849999999996     37.740150000000000
H      40.842050000000000     36.060649999999995     36.407450000000004
H      40.148049999999998     35.788250000000005     38.011750000000006
H      34.290149999999997     39.562049999999999     36.800950000000000
H      35.248249999999999     40.211749999999995     35.787750000000003
H      34.358249999999998     38.362349999999992     35.823550000000004
O      35.367150000000002     36.733649999999997     40.355550000000001
