6

C      38.392099999999999     38.613099999999996     38.202099999999994
C      38.155299999999997     37.263500000000001     38.288699999999999
H      38.754300000000008     39.237800000000000     37.270799999999994
H      37.809100000000008     39.420099999999998     38.729200000000006
H      37.204799999999999     36.689700000000002     38.448300000000003
H      38.795200000000001     36.579900000000002     37.880200000000002
