52

C      37.480550000000008     37.622599999999991     37.967449999999992
C      37.570650000000001     39.120699999999985     37.972949999999997
C      39.720450000000000     38.746200000000002     42.167049999999996
C      38.019750000000002     37.094999999999999     39.238949999999996
C      38.022050000000007     39.981499999999997     39.078749999999992
C      39.561550000000011     37.567700000000002     41.339649999999999
C      38.603650000000002     37.939699999999988     40.261850000000003
C      38.533050000000003     39.476500000000001     40.347849999999994
C      37.152250000000009     36.639300000000006     36.820250000000001
C      36.636050000000012     37.309200000000004     35.643450000000001
C      36.565550000000002     38.847600000000000     35.610450000000000
C      36.997050000000002     39.762000000000000     36.742950000000000
C      37.177350000000004     35.250199999999992     37.001649999999998
C      36.718450000000004     34.390199999999993     35.787050000000001
C      36.338150000000013     34.820099999999996     34.555850000000000
C      36.465350000000001     36.295100000000005     34.571149999999996
C      37.839950000000002     34.729600000000005     38.230549999999994
C      38.441550000000007     35.634000000000000     39.129550000000002
C      36.154550000000000     39.552799999999991     34.427350000000004
C      35.798650000000009     41.087000000000003     34.437950000000001
C      36.344150000000013     41.812399999999997     35.398150000000001
C      36.834050000000005     41.160899999999998     36.659749999999995
C      35.958650000000006     37.077100000000002     33.357350000000004
C      36.192250000000001     38.558400000000006     33.296149999999997
C      37.121050000000011     42.052800000000005     37.803249999999998
C      37.476550000000003     41.433599999999998     39.080049999999993
C      38.944050000000004     35.156700000000001     40.629349999999988
C      39.879950000000008     36.108900000000006     41.177049999999994
C      37.029650000000004     42.292000000000002     40.069449999999989
C      35.955150000000003     33.053299999999993     36.151049999999998
C      38.519550000000010     42.252899999999997     43.267950000000006
H      39.261550000000000     40.739699999999999     41.984850000000002
H      40.574550000000002     41.786900000000003     43.608049999999999
H      38.202650000000006     43.972300000000004     42.588050000000003
H      36.567050000000009     42.601500000000001     42.115649999999995
H      40.292250000000010     38.888800000000003     42.915150000000004
H      35.750850000000000     34.273799999999994     33.841050000000003
H      38.136150000000001     33.856499999999997     38.394249999999992
H      35.212750000000000     41.232900000000001     33.585250000000002
H      36.353050000000010     42.928100000000001     35.370550000000001
H      35.555950000000010     36.538600000000002     32.483249999999998
H      36.475350000000006     39.094899999999996     32.391950000000001
H      36.982850000000013     43.193399999999997     37.593350000000001
H      38.829550000000012     34.042900000000003     41.156749999999988
H      37.881250000000009     35.140699999999995     40.904950000000007
H      40.226650000000006     35.670000000000002     42.259149999999998
H      40.787250000000000     36.183999999999997     40.433950000000003
N      39.160250000000005     39.814399999999992     41.435350000000000
N      37.647850000000005     43.060999999999993     42.858150000000002
O      36.308750000000003     43.016199999999998     40.681149999999988
O      35.556750000000008     32.027699999999996     36.325450000000004
O      39.398050000000012     41.417099999999991     43.583350000000003
