6

C      38.048099999999991     38.734049999999982     37.821449999999999
C      38.271699999999996     37.322950000000006     38.167750000000005
H      38.614899999999999     39.245049999999992     37.096049999999998
H      36.922300000000000     38.925449999999998     37.661750000000005
H      37.632700000000000     36.813350000000000     38.903950000000002
H      39.077700000000000     36.754950000000008     37.856950000000005
