46

C      36.095249999999993     36.982614999999996     38.826049999999995
C      35.891849999999998     37.458314999999999     40.196550000000002
C      39.991649999999993     39.989615000000001     38.476450000000000
C      39.886849999999995     40.393715000000000     39.778949999999995
C      36.861150000000002     37.724114999999998     37.767650000000003
C      36.837849999999996     38.548014999999992     40.653049999999993
C      38.895649999999989     39.385215000000002     37.685949999999998
C      39.020350000000001     39.711214999999996     40.670750000000005
C      38.038449999999990     38.554514999999995     38.400050000000000
C      38.056049999999992     38.874915000000001     39.904149999999994
C      35.367849999999990     35.771564999999995     38.387050000000002
C      34.341850000000001     35.272004999999993     39.465549999999993
C      34.064949999999996     36.048194999999993     40.621749999999999
C      35.088450000000002     36.943314999999998     41.186150000000005
C      41.073649999999994     40.657714999999996     37.940150000000003
C      42.157449999999997     41.440015000000002     38.669450000000005
C      41.848149999999997     41.964114999999993     39.994650000000000
C      40.727349999999994     41.354415000000003     40.616750000000003
C      34.934350000000002     35.291105000000002     36.989250000000006
C      33.977749999999993     34.583685000000003     36.131050000000002
C      34.001349999999995     34.360394999999997     37.585750000000004
C      33.631349999999998     34.158704999999998     38.888350000000003
C      36.710949999999990     37.672314999999998     36.333449999999999
C      37.261749999999999     37.011314999999996     35.222650000000002
C      37.682150000000000     35.503685000000004     34.950850000000003
C      35.829850000000000     37.689414999999997     34.998750000000001
C      33.862349999999999     34.223124999999996     34.735050000000001
H      37.259049999999995     38.934314999999998     41.593649999999997
H      38.681249999999999     39.568214999999995     36.606349999999999
H      38.897849999999991     40.057614999999998     41.576950000000004
H      33.206549999999993     35.998604999999998     41.167450000000002
H      34.730449999999998     37.198014999999998     42.183749999999996
H      40.890250000000002     40.649914999999993     36.787250000000000
H      43.134749999999997     41.543215000000004     38.252749999999992
H      42.521449999999994     42.406514999999999     40.589850000000006
H      40.187249999999992     41.712414999999993     41.587149999999994
H      32.865249999999996     33.593485000000001     39.483049999999999
H      38.251749999999994     37.851814999999988     34.912849999999999
H      36.816250000000004     34.877735000000001     35.274250000000002
H      38.328449999999989     35.348304999999996     35.802050000000001
H      32.976750000000003     33.631664999999998     34.754049999999999
H      37.712449999999990     35.113284999999991     33.816250000000004
H      34.946350000000002     37.041015000000002     34.921050000000001
H      35.868749999999999     38.324014999999989     34.206250000000004
H      33.756850000000000     35.109565000000003     34.285350000000001
H      34.962749999999993     33.998964999999998     34.330750000000002
