62

C      35.174049999999994     38.111199999999997     36.380599999999994
C      35.738949999999996     39.497300000000003     36.145300000000006
C      37.813350000000000     39.322500000000005     40.845499999999994
C      35.182449999999989     37.607600000000005     37.785499999999999
C      36.561550000000004     40.200400000000002     37.228000000000002
C      35.875850000000000     37.804800000000000     40.143500000000003
C      36.036850000000001     38.314699999999995     38.692100000000003
C      36.799650000000000     39.540699999999994     38.504500000000007
C      34.634650000000001     37.452000000000005     35.174099999999996
C      34.373849999999997     37.949200000000005     33.844800000000006
C      34.913949999999993     39.535000000000004     33.601100000000002
C      35.523949999999992     40.116800000000005     34.799500000000009
C      34.099649999999997     36.028200000000005     35.342600000000004
C      33.759949999999996     35.008999999999993     34.223500000000001
C      33.376849999999997     35.720400000000005     33.043100000000003
C      33.600250000000003     37.137100000000004     32.860200000000006
C      34.612150000000000     36.119800000000005     37.838000000000001
C      33.809449999999998     35.701500000000003     36.782299999999999
C      37.403950000000002     41.373700000000007     36.821599999999997
C      36.898050000000005     42.102100000000007     35.514600000000002
C      35.756149999999991     41.620200000000004     34.496700000000004
C      38.214049999999993     41.497600000000006     35.326100000000004
C      33.571149999999996     33.581200000000003     34.571400000000004
C      36.538050000000005     38.645200000000003     41.150500000000001
C      40.351750000000003     40.362099999999998     41.536199999999994
C      38.625350000000005     40.053400000000003     41.949299999999994
C      39.649549999999998     39.681200000000004     42.738000000000000
C      40.732949999999995     37.562500000000007     42.125600000000006
C      41.336950000000002     39.359700000000004     40.838100000000004
C      41.549650000000000     37.904500000000006     40.937500000000000
C      42.496149999999993     41.211700000000000     39.921100000000003
C      37.553049999999999     37.462400000000002     40.936300000000003
C      42.128250000000001     39.931500000000007     39.821900000000007
C      38.533250000000002     40.150300000000001     43.422599999999996
H      35.243749999999991     36.874400000000001     40.541400000000003
H      39.123349999999995     37.682700000000004     43.356600000000000
H      32.804849999999995     35.491600000000005     32.197900000000004
H      34.655749999999998     35.766199999999998     38.926200000000001
H      33.193550000000002     34.817200000000000     36.824199999999998
H      37.663850000000004     42.074300000000001     37.631799999999998
H      36.825349999999993     43.131200000000000     35.613000000000007
H      34.758749999999992     42.143400000000007     34.537900000000008
H      35.965250000000005     41.859400000000001     33.403700000000001
H      39.073850000000000     42.234800000000007     35.447100000000006
H      38.530250000000002     41.140300000000003     34.191200000000009
H      33.253250000000001     32.868800000000000     33.798100000000005
H      34.105950000000000     33.276700000000005     35.514400000000009
H      36.272949999999994     38.648799999999994     42.165899999999993
H      40.558550000000004     41.371299999999998     40.999400000000001
H      41.990349999999999     37.222200000000001     40.177399999999999
H      42.041049999999998     42.045800000000007     40.525500000000001
H      40.789949999999997     36.545300000000005     42.191099999999999
H      43.195150000000005     41.675000000000004     39.227199999999996
H      37.857849999999992     37.041500000000006     39.950500000000005
H      37.805450000000000     36.896500000000003     41.843400000000003
H      37.893850000000000     41.234899999999996     39.517900000000004
H      42.812149999999988     39.357199999999999     39.125399999999999
H      37.854949999999995     39.532700000000006     44.059500000000007
H      33.363950000000003     37.615100000000005     31.940499999999993
N      37.553049999999999     40.099400000000003     39.544800000000002
N      40.118549999999992     38.284000000000006     43.148200000000003
O      34.085050000000003     40.287899999999993     33.069400000000002
