11

C      38.486800000000002     38.425650000000005     37.560150000000000
C      37.339300000000009     38.202750000000009     38.271349999999998
C      39.208100000000002     39.741750000000010     37.879349999999995
C      36.593000000000004     36.776550000000007     38.270550000000000
H      37.176900000000003     35.934249999999999     38.746650000000002
H      38.942399999999992     37.494450000000008     37.133550000000000
H      36.829399999999993     38.941650000000003     38.860350000000011
H      39.015300000000011     40.065750000000001     38.866450000000000
H      40.136399999999995     39.889750000000006     37.501050000000006
H      35.865200000000002     37.191750000000006     38.820850000000000
H      35.863600000000005     36.508450000000011     37.392450000000011
