56

C      37.711349999999996     39.235149999999990     37.370494999999991
C      37.958949999999994     37.915450000000000     37.222584999999995
C      42.705549999999995     39.933250000000001     37.669654999999992
C      38.820149999999998     40.273849999999996     37.642965000000004
C      39.416750000000000     37.407350000000001     37.315034999999995
C      41.503749999999997     40.973149999999997     37.442484999999991
C      42.035450000000004     38.569049999999997     37.496435000000005
C      40.330450000000006     39.889049999999997     37.310344999999998
C      40.476649999999999     38.373849999999997     37.166494999999998
C      36.401850000000003     39.867349999999995     37.646805000000001
C      35.159550000000003     39.065449999999998     37.495104999999995
C      35.294649999999997     37.503050000000002     37.128334999999993
C      36.727549999999994     36.976450000000000     37.195355000000006
C      36.294550000000001     41.363650000000000     37.841165000000004
C      34.944850000000002     41.780650000000001     37.879204999999985
C      33.874950000000005     40.883049999999990     37.878664999999998
C      33.810650000000003     39.441749999999992     37.845354999999998
C      37.411750000000005     42.284050000000001     37.990854999999996
C      38.708550000000002     41.667049999999996     37.912374999999997
C      34.121350000000000     36.659649999999992     37.174795000000003
C      34.311650000000000     35.189949999999996     36.803404999999998
C      35.711350000000003     34.786250000000003     36.926464999999993
C      36.911650000000002     35.584750000000000     36.919174999999996
C      32.905750000000005     37.143450000000001     37.893564999999995
C      39.710050000000003     35.881149999999998     37.166965000000005
C      38.354450000000000     35.261550000000000     36.725634999999997
C      39.605950000000000     42.482250000000001     38.314175000000006
C      41.177349999999997     42.077449999999992     38.344605000000001
C      34.736049999999999     33.810150000000000     36.446134999999998
C      42.959450000000004     39.057650000000002     38.887735000000006
C      41.546650000000000     42.036049999999989     39.895734999999988
C      41.837849999999996     42.742049999999999     37.185855000000004
C      44.041549999999994     40.370150000000002     37.154394999999994
H      42.572749999999999     37.717849999999991     36.684365000000000
H      34.954749999999997     42.884249999999994     37.669034999999994
H      32.905050000000003     41.350549999999991     37.887585000000001
H      37.249449999999996     43.252049999999990     38.685094999999990
H      40.663649999999990     35.578249999999997     36.516985000000005
H      40.093250000000005     35.314050000000002     38.100825000000000
H      38.476750000000003     35.499949999999998     35.616934999999998
H      38.473850000000006     34.032449999999997     36.854474999999994
H      39.448850000000000     43.380749999999999     38.849664999999987
H      42.370049999999992     38.601649999999999     39.841534999999993
H      43.935349999999993     38.744349999999997     38.812844999999996
H      42.476450000000000     42.144849999999991     40.279884999999993
H      41.184349999999995     42.940349999999995     40.219795000000005
H      40.900849999999998     41.386749999999999     40.383065000000002
H      41.135849999999998     43.049050000000001     36.268815000000004
H      42.867249999999991     43.056249999999999     37.230355000000003
H      44.524349999999998     40.466450000000002     36.160214999999994
H      43.695450000000001     41.389249999999997     36.982604999999992
H      45.011150000000001     40.325449999999996     37.878015000000005
H      30.988849999999999     36.508749999999999     38.256384999999995
N      32.832550000000005     38.442849999999993     38.161014999999992
O      34.520450000000004     32.619250000000001     36.696254999999994
O      32.055349999999997     36.203449999999997     38.095185000000001
