62

C      39.227499999999992     39.258349999999993     38.341049999999996
C      38.169499999999999     38.389550000000000     38.794749999999993
C      34.501500000000000     43.497549999999997     34.571549999999988
C      33.590599999999995     42.427650000000000     34.544950000000000
C      38.782499999999999     40.632750000000001     37.770049999999998
C      36.791799999999988     38.710650000000001     38.737150000000000
C      35.824199999999998     43.421549999999996     35.120549999999994
C      33.941199999999995     41.358450000000005     35.503049999999988
C      37.349499999999999     42.062649999999998     36.474949999999993
C      35.207799999999999     40.126150000000003     37.178950000000000
C      37.462299999999999     40.811150000000005     37.425150000000002
C      36.378900000000002     39.796150000000004     37.869749999999996
C      36.192000000000000     42.372950000000003     36.232749999999996
C      35.169799999999995     41.338349999999998     36.333050000000000
C      40.649299999999997     39.034650000000006     38.762349999999998
C      40.670200000000001     37.894150000000003     39.568049999999999
C      39.744399999999992     37.003450000000008     40.260849999999991
C      38.416699999999999     37.515450000000001     40.005650000000003
C      41.685400000000001     38.857450000000000     37.478849999999994
C      35.715100000000000     37.375050000000002     39.066249999999997
C      36.475499999999997     36.154250000000005     39.526349999999994
C      37.523199999999996     36.393350000000005     40.664849999999987
C      36.605499999999999     44.640750000000004     34.931349999999995
C      36.985199999999999     35.052250000000008     38.621749999999992
C      35.412199999999999     35.370449999999998     40.445449999999994
C      41.630799999999994     40.212750000000000     38.299849999999992
C      34.852399999999996     37.012149999999998     37.736949999999993
C      34.460899999999995     33.672850000000004     38.675749999999994
C      34.702399999999997     32.452150000000003     37.964550000000003
C      35.215599999999995     31.450849999999996     38.873750000000001
C      35.512999999999998     31.698750000000004     40.262950000000004
C      35.553699999999999     33.011350000000000     40.865449999999996
C      34.879799999999996     33.999550000000006     39.972650000000002
C      43.167299999999997     36.859850000000002     37.512349999999998
H      34.175599999999996     44.555350000000004     34.072649999999996
H      32.590100000000000     42.497150000000005     34.218449999999990
H      32.990099999999998     40.659250000000000     35.118949999999998
H      38.151299999999999     42.591250000000002     36.124150000000000
H      34.421999999999997     39.406050000000000     37.291950000000000
H      41.806399999999989     37.725450000000002     39.481949999999998
H      39.964300000000001     36.118649999999995     40.909949999999995
H      41.104399999999998     38.641049999999993     36.645550000000000
H      34.803599999999996     37.727950000000000     39.535049999999998
H      37.608499999999999     35.352450000000005     40.587049999999991
H      37.100400000000000     36.906849999999991     41.409449999999993
H      35.725800000000000     35.110350000000004     41.467849999999999
H      34.577399999999997     36.188050000000004     40.581249999999997
H      42.410599999999995     40.373050000000006     39.139449999999997
H      41.873300000000000     41.030350000000006     37.676049999999989
H      35.584299999999999     37.461549999999995     36.915049999999994
H      34.585999999999999     36.118950000000005     37.083749999999995
H      33.994299999999996     37.533550000000005     37.780749999999998
H      34.066699999999997     34.413050000000005     37.959049999999991
H      34.400100000000002     32.157350000000001     37.008349999999993
H      35.255299999999998     30.416349999999994     38.638149999999996
H      35.577100000000002     30.796550000000003     40.940649999999991
H      35.808799999999998     33.155149999999999     41.927350000000004
H      39.528500000000001     41.479149999999997     37.503550000000004
O      37.203199999999995     45.583650000000006     34.925349999999995
O      37.558399999999999     34.782150000000001     37.698449999999994
O      43.013100000000001     38.077549999999995     37.646749999999997
O      43.409900000000000     35.664950000000005     37.328249999999997
