5

C      38.180949999999996     37.908849999999994     38.137022999999999
H      38.758249999999990     37.146749999999997     38.834419999999994
H      37.757750000000001     37.356349999999999     37.165580000000006
H      38.556249999999991     38.853250000000003     37.970949000000005
H      37.241750000000010     38.216049999999996     38.530999999999992
