16

C      40.064449999999994     38.194854999999997     38.836699999999993
C      39.655050000000003     39.441705000000006     38.200600000000009
C      38.207749999999997     39.372504999999997     37.941699999999997
C      37.738450000000000     38.134955000000005     38.456100000000006
C      38.916650000000004     37.309095000000006     38.927400000000006
C      36.397649999999992     37.794035000000008     38.298900000000003
C      34.381550000000004     36.425725000000000     37.643099999999990
H      40.132049999999992     40.590705000000000     38.183199999999999
H      37.556950000000001     40.126405000000005     37.657300000000006
H      38.896450000000002     36.216065000000000     39.219200000000001
H      42.365749999999998     38.855525000000000     39.164999999999992
H      33.634250000000002     36.688755000000000     38.286100000000005
H      34.282249999999998     36.788174999999995     36.566500000000005
H      34.931549999999994     35.409295000000000     37.784500000000008
O      35.150350000000003     37.731335000000001     38.169600000000003
S      41.849550000000001     37.747895000000000     39.433499999999995
