59

C      34.213049999999996     40.714849999999998     33.680899999999994
C      35.453049999999990     39.190750000000001     35.147099999999995
C      36.422849999999997     36.089549999999996     41.646730000000005
C      36.644049999999993     39.344750000000005     36.033799999999999
C      34.545450000000002     38.131050000000009     35.462999999999994
C      37.527950000000004     36.870050000000006     40.890460000000004
C      35.016249999999999     36.118249999999996     40.851709999999997
C      38.345249999999993     38.948750000000004     38.017140000000012
C      34.025649999999985     36.315750000000001     37.077466000000001
C      38.571349999999995     38.419150000000009     39.397990000000007
C      34.094949999999997     35.895650000000003     38.473780000000005
C      37.024649999999994     38.570350000000005     37.214952000000011
C      34.908749999999998     37.435950000000005     36.645987000000005
C      37.331350000000000     37.747650000000007     39.763840000000002
C      34.970150000000004     36.457750000000004     39.393680000000003
C      36.003050000000002     37.758450000000003     37.525496000000004
C      36.160849999999996     37.287650000000006     38.928580000000011
C      33.147849999999991     41.162450000000007     34.464900000000000
C      35.647649999999985     40.283950000000004     34.048499999999990
C      37.088149999999985     40.826250000000009     34.022199999999998
C      37.689149999999998     40.355350000000008     35.550899999999999
C      38.830550000000002     40.710049999999995     36.243299999999991
C      39.204750000000004     39.844850000000001     37.335994000000014
C      36.740449999999996     35.236149999999995     42.675299999999993
C      38.239349999999988     35.207550000000005     43.103780000000000
C      39.306749999999994     35.949650000000005     42.566380000000009
C      38.820549999999997     36.985550000000003     41.548420000000007
C      40.092049999999986     37.580950000000009     41.037080000000003
C      40.090249999999997     38.414850000000008     39.868510000000001
C      40.440049999999985     40.036350000000006     38.105680000000007
C      40.933650000000000     39.360950000000010     39.249710000000007
C      41.585049999999995     40.229450000000000     36.921000000000006
C      42.852450000000005     37.319350000000007     38.531790000000001
C      40.302449999999993     40.931250000000006     39.206640000000007
C      42.318849999999998     38.889150000000001     39.167410000000004
H      34.407849999999996     40.539149999999999     32.608499999999992
H      32.138350000000003     41.096950000000007     34.186599999999999
H      33.584649999999996     37.819150000000008     34.760099999999994
H      33.329349999999991     35.886650000000003     36.398399999999995
H      33.411749999999998     35.059450000000005     38.751190000000008
H      33.296049999999994     41.285050000000005     35.609699999999989
H      37.184249999999992     41.870850000000004     33.578099999999992
H      37.787649999999999     40.065250000000006     33.437399999999997
H      39.464649999999992     41.623750000000001     35.702399999999997
H      36.034849999999992     34.129149999999996     42.772930000000002
H      38.274950000000004     34.287149999999997     43.391500000000008
H      40.336550000000003     35.753850000000007     42.838610000000003
H      41.203949999999992     37.263250000000006     41.237270000000009
H      41.477649999999997     41.156550000000003     36.325299999999999
H      41.156149999999997     39.971450000000004     35.975399999999993
H      42.382149999999996     39.677750000000010     37.050840000000008
H      43.123249999999985     37.093550000000008     37.448500000000010
H      42.240549999999999     36.518850000000008     38.826490000000007
H      43.861649999999997     37.119150000000005     38.926960000000008
H      39.093949999999992     41.158050000000003     39.462270000000004
H      41.073649999999986     41.780950000000004     39.645020000000002
H      42.519349999999989     38.471550000000001     40.215000000000003
H      43.026349999999994     39.603350000000006     39.214550000000003
O      34.071749999999994     35.327850000000005     41.186930000000004
