33

C      37.974849999999989     38.174649999999993     36.640899999999988
C      36.503949999999989     37.781950000000002     36.881399999999999
C      38.046849999999992     34.018950000000004     38.909099999999981
C      38.929349999999999     37.196449999999999     37.053899999999999
C      35.994349999999997     36.604649999999999     37.483599999999996
C      39.090350000000001     34.647649999999999     38.194400000000002
C      38.367750000000001     35.799050000000001     37.588599999999985
C      36.929550000000006     35.554549999999999     37.954400000000007
C      38.211050000000000     39.537550000000003     36.142099999999999
C      37.050449999999998     40.409950000000002     36.089799999999997
C      35.620149999999995     40.111449999999998     36.301199999999994
C      35.366849999999999     38.724049999999998     36.690899999999999
C      39.661850000000001     39.952949999999994     36.064200000000000
C      36.418149999999997     42.783850000000001     36.712699999999998
C      37.572749999999999     41.935850000000002     36.350800000000007
C      40.622050000000002     38.855550000000001     36.157600000000002
C      40.348450000000000     37.643750000000004     36.738399999999999
C      38.774549999999991     33.073049999999995     40.058000000000007
C      36.970550000000003     42.964550000000003     35.495800000000003
H      38.965150000000008     32.015350000000005     39.826599999999999
H      38.141950000000008     33.204250000000002     41.044700000000006
H      34.857950000000002     36.515750000000004     37.485200000000006
H      40.070650000000001     34.170749999999998     38.091400000000007
H      34.682950000000005     40.791750000000000     36.068799999999996
H      34.525449999999992     38.250949999999996     37.337199999999996
H      35.941949999999991     42.701349999999998     37.759799999999998
H      39.826650000000001     40.841550000000005     35.626800000000003
H      41.474550000000008     39.146250000000002     35.727999999999994
H      41.057050000000004     36.906150000000004     37.113399999999984
H      39.841750000000005     33.446249999999999     40.340999999999994
H      37.221750000000000     43.984649999999995     34.955299999999994
H      38.661650000000009     42.025849999999998     36.404099999999985
N      36.789850000000001     34.352049999999991     38.662300000000002
