44

C      41.129949999999994     41.040699999999994     38.516824999999990
C      37.679749999999999     33.686199999999999     36.347065000000001
C      36.636350000000007     35.517299999999999     37.759574999999998
C      35.463750000000005     35.611499999999999     38.639195000000001
C      37.224249999999998     40.384000000000000     39.111354999999989
C      35.896450000000002     40.763199999999998     39.585164999999996
C      37.067149999999998     36.915099999999995     37.466924999999996
C      34.926650000000009     36.857500000000002     39.318285000000003
C      37.706649999999996     39.170200000000001     38.432764999999996
C      35.134250000000009     39.428600000000003     39.692025000000001
C      36.608150000000009     38.140900000000002     38.076164999999996
C      35.388850000000005     38.215900000000005     38.852404999999997
C      36.964550000000003     34.024900000000002     37.648305000000001
C      35.829149999999998     32.977499999999999     38.025424999999998
C      35.204949999999997     32.798800000000000     39.395105000000001
C      34.917950000000005     34.201399999999992     38.934395000000002
C      38.224450000000004     41.441099999999992     39.003534999999992
C      36.332750000000004     43.033400000000000     38.698605000000001
C      37.714449999999999     42.700699999999991     38.438764999999997
C      35.448850000000007     42.141800000000003     39.357554999999998
C      38.596450000000004     37.008800000000001     37.140565000000002
C      39.241150000000005     35.696399999999997     37.061185000000002
C      38.358050000000006     34.138500000000001     37.765634999999996
C      39.639250000000004     41.072600000000001     39.159655000000001
H      41.314450000000008     41.089900000000000     37.531694999999992
H      41.850250000000003     41.852300000000000     38.656514999999992
H      41.754050000000007     40.417699999999996     39.206825000000002
H      37.687150000000003     32.497599999999991     36.157004999999991
H      37.437550000000002     34.568200000000004     35.690404999999998
H      34.149749999999997     36.710300000000004     40.206485000000001
H      38.671050000000008     38.908799999999999     38.637985000000000
H      34.351050000000001     39.530400000000000     40.309595000000002
H      35.475949999999997     32.393700000000003     37.356515000000002
H      34.425150000000002     34.278800000000004     39.877015000000000
H      35.876350000000002     44.022700000000000     38.438955000000000
H      38.461449999999999     43.327399999999990     37.824714999999998
H      34.391050000000007     42.453600000000002     39.550834999999992
H      38.506450000000001     37.183099999999989     36.054504999999992
H      39.212449999999990     37.819099999999999     37.635655000000000
H      40.495649999999998     35.653099999999995     37.380844999999994
H      39.391850000000005     35.670400000000001     36.147184999999993
H      39.079350000000005     33.423499999999997     38.131354999999999
O      39.400250000000000     41.841999999999999     40.093154999999996
O      34.585149999999999     31.977300000000000     40.059145000000001
