46

C      41.123950000000001     37.209900000000005     37.458499999999994
C      35.171950000000002     39.480000000000004     41.267899999999997
C      40.148050000000005     36.480199999999996     36.449714999999998
C      34.455650000000006     38.441199999999995     40.612530000000000
C      40.498649999999998     38.146500000000003     38.203549999999993
C      36.640650000000008     39.683400000000006     41.162700000000001
C      37.852950000000007     35.487800000000007     35.804862999999997
C      34.086150000000004     36.531300000000002     38.795279999999991
C      36.400550000000003     35.769599999999997     36.081537999999995
C      34.750950000000003     35.911199999999994     37.599939999999997
C      38.572650000000003     38.995000000000005     39.562569999999994
C      38.836550000000003     36.107900000000001     36.797019999999996
C      34.867650000000005     37.483699999999999     39.575189999999992
C      36.218050000000005     36.079400000000007     37.504559999999998
C      39.058050000000001     38.012400000000000     38.732609999999994
C      37.251950000000008     38.851399999999998     40.181590000000000
C      38.306150000000002     36.882800000000003     37.985939999999999
C      36.386950000000006     37.689999999999998     39.608649999999990
C      36.915550000000003     36.996499999999997     38.512479999999989
C      42.529550000000008     36.942300000000003     37.313339999999997
C      43.036449999999995     36.026300000000006     36.285810999999995
C      42.255650000000003     35.801299999999998     35.129909999999995
C      40.856049999999996     35.852400000000003     35.275309999999983
C      39.851250000000007     35.325299999999999     34.345109999999991
C      35.760050000000007     35.919600000000003     34.736409999999992
C      34.075049999999997     40.314800000000005     41.764309999999995
C      32.753249999999994     39.639300000000006     41.795510000000000
C      33.006950000000003     38.495300000000000     40.947039999999994
C      38.436650000000007     35.133099999999999     34.525309999999990
C      39.641349999999996     40.106600000000000     40.066899999999997
H      40.835549999999998     38.672899999999998     38.949469999999998
H      37.016250000000007     40.372500000000002     41.783999999999992
H      32.891449999999999     36.521500000000003     39.013329999999996
H      34.193850000000005     35.258099999999999     36.830129999999997
H      43.215350000000008     37.504400000000004     37.860909999999990
H      44.159250000000000     35.852599999999995     36.408288999999996
H      42.698850000000000     35.364100000000008     34.137909999999991
H      40.175850000000004     34.825100000000006     33.416409999999999
H      34.287250000000000     41.174899999999994     42.583590000000001
H      31.840750000000000     39.982900000000001     42.285049999999998
H      32.440349999999995     37.721800000000002     40.457089999999987
H      38.020449999999997     35.012100000000004     33.569209999999998
H      40.290950000000002     40.579899999999995     39.158729999999998
H      40.301250000000003     39.571600000000004     40.779789999999998
H      39.158950000000004     40.931300000000007     40.522759999999991
O      35.141050000000007     36.190899999999999     33.801810000000003
