15

C      38.658899999999988     39.620549999999994     37.356549999999999
H      39.680999999999997     35.436550000000004     37.297549999999987
H      37.357100000000003     35.412950000000002     39.399550000000005
H      37.293999999999997     38.671749999999996     38.914649999999995
H      37.281400000000005     37.850850000000001     40.190849999999998
H      37.712199999999996     35.308450000000001     37.748850000000004
H      38.701599999999999     35.902050000000003     35.809150000000002
H      36.319000000000003     36.944449999999996     38.932550000000006
H      39.460499999999996     40.294550000000008     39.054649999999995
H      38.965800000000002     37.414650000000002     37.310149999999993
N      36.597400000000007     38.053849999999997     39.434950000000001
N      38.746099999999998     36.005749999999999     37.056849999999997
O      36.659800000000004     35.517450000000004     38.805049999999994
O      38.326299999999989     38.616350000000004     36.734350000000006
O      38.760700000000000     40.691549999999999     37.949449999999999
