18

C      36.038164999999992     39.240399999999994     36.131050000000002
H      37.110864999999997     37.356000000000002     36.062050000000006
H      38.466765000000002     37.228699999999996     39.522850000000005
H      39.572045000000010     38.295400000000001     37.644649999999999
H      35.336064999999998     39.457500000000003     37.787149999999997
H      40.663935000000002     36.963600000000000     37.527850000000008
H      37.659764999999993     38.306899999999992     40.686549999999997
H      37.352965000000005     36.046900000000001     37.981850000000001
H      37.681865000000002     37.987500000000004     38.166950000000000
H      37.279265000000002     36.027099999999997     39.892850000000003
H      39.006809000000011     36.659699999999994     36.827150000000003
H      38.601115000000007     39.440999999999995     39.939350000000012
N      37.805365000000002     36.983499999999999     37.286349999999999
N      37.998565000000006     38.569299999999998     39.522550000000010
O      40.132925000000014     37.639900000000004     37.001550000000002
O      36.559065000000004     38.498500000000000     35.313450000000010
O      38.279465000000009     35.965299999999999     40.119550000000011
O      35.546465000000005     40.034700000000001     36.955650000000013
