8

C      38.380449999999996     37.409149999999990     37.413349999999994
C      37.814350000000005     38.800749999999994     38.252749999999992
H      37.773150000000008     36.687150000000003     37.110250000000001
H      38.983950000000007     36.744550000000004     38.143149999999991
H      36.888849999999998     39.102649999999997     38.212949999999999
H      38.188350000000007     39.312849999999997     37.517749999999999
H      39.111150000000002     37.701349999999998     36.736950000000000
H      37.955250000000007     39.111549999999994     39.263050000000000
