6

C      37.299549999999996     37.737249999999989     37.901399999999995
C      38.678749999999994     37.801649999999995     37.976600000000005
H      36.822749999999999     38.254549999999995     37.198599999999999
H      36.671549999999996     37.110550000000003     38.468600000000009
H      39.328450000000004     37.357250000000008     38.801400000000001
H      39.268349999999998     38.889449999999997     37.215000000000003
