61

C      37.949664999999982     39.263339999999999     38.439649999999993
C      36.820184999999995     39.983599999999996     37.852550000000001
C      39.015464999999992     32.242650000000012     38.991250000000001
C      37.880434999999991     37.854309999999998     38.887350000000005
C      35.682074000000000     39.092160000000007     37.464550000000003
C      36.945245000000000     33.418549999999996     37.681750000000001
C      37.037664999999990     35.548450000000017     38.232150000000004
C      34.868944999999997     36.582982999999999     36.841050000000003
C      36.883964999999989     37.087580000000003     38.155349999999999
C      35.817534999999992     37.700399999999988     37.320550000000004
C      36.166014999999987     34.639749999999992     37.386650000000003
C      34.927745000000002     35.195949999999996     36.640349999999998
C      39.086594999999988     40.090850000000003     38.691850000000002
C      39.098114999999993     41.516499999999994     38.294650000000004
C      37.975574999999992     42.151599999999988     37.641150000000003
C      36.673034999999999     41.415890000000005     37.596450000000004
C      40.330424999999991     39.375860000000003     39.022449999999999
C      41.601164999999995     40.085549999999998     39.088549999999998
C      41.708095000000000     41.464489999999998     38.827249999999999
C      40.504174999999989     42.080169999999995     38.250150000000005
C      40.344515000000001     38.013339999999999     39.440049999999992
C      39.109764999999982     37.174250000000001     39.327750000000002
C      39.232554999999991     35.683657699999998     39.645750000000000
C      38.082304999999991     34.886150000000001     39.150950000000002
C      37.919194999999988     43.523730000000000     36.961150000000004
C      36.838094999999996     44.001999999999995     36.142549999999993
C      35.641667999999996     43.334500000000006     36.371749999999992
C      35.522475999999983     42.067220000000006     37.090949999999999
C      34.283945000000003     39.766170000000002     36.916150000000002
C      34.198144999999997     41.301150000000007     37.255149999999993
C      37.752134999999996     34.798550000000006     40.535149999999994
C      37.900475000000000     33.386150000000015     38.754049999999999
C      34.351744999999994     39.483869999999996     35.439450000000001
C      40.141904999999994     32.189550000000011     39.389850000000003
C      40.566854999999990     35.368549999999999     40.404250000000005
H      36.742094999999992     32.434150000000002     37.012550000000005
H      34.683644999999984     33.257050000000000     36.121849999999995
H      33.434244999999990     34.016549999999995     37.164349999999999
H      33.987644999999986     37.236639999999994     36.700450000000004
H      42.532484999999994     39.739639999999994     39.524450000000002
H      42.610354999999998     42.031319999999994     38.864750000000001
H      40.640344999999996     42.876639999999995     37.716650000000001
H      41.304684999999992     37.562819999999988     39.703349999999993
H      38.564094999999980     44.219549999999998     36.489849999999997
H      36.697744999999998     44.867750000000001     35.563850000000002
H      34.550245000000004     43.834729999999993     36.022549999999995
H      33.463745000000003     39.366429999999994     37.425750000000001
H      33.794145000000000     41.396780000000007     38.139449999999997
H      33.389645000000002     41.677679999999995     36.618450000000003
H      36.869464999999991     35.291950000000000     40.717150000000004
H      37.905784999999995     33.806150000000002     41.050549999999994
H      41.186724999999981     32.663049999999991     39.787750000000003
H      38.588924999999989     31.132249999999996     38.905149999999992
H      33.561544999999981     39.832669999999993     34.847050000000003
H      34.609244999999987     38.503820000000005     35.125750000000004
H      35.009244999999993     40.126080000000002     34.950749999999999
H      40.288104999999987     31.133349999999993     39.699350000000003
H      40.919764999999984     36.231621000000004     40.649550000000005
H      41.465284999999980     35.420749999999998     39.831750000000000
H      40.434264999999996     34.320549999999997     41.152949999999997
N      34.079644999999999     34.108249999999998     36.203250000000004
