71

C      30.845934999999990     36.721449999999990     41.845799999999990
C      42.908534999999986     39.126249999999999     36.799100000000003
C      42.246734999999987     38.117449999999998     35.699299999999994
C      33.999834999999990     37.235549999999996     39.277400000000000
C      38.297834999999999     42.248749999999994     40.186700000000002
C      34.451734999999985     36.949249999999992     37.833500000000001
C      34.708234999999988     38.249150000000000     40.129899999999999
C      39.508334999999988     42.797649999999997     39.840500000000006
C      42.180334999999985     39.976149999999997     37.716700000000003
C      40.780034999999998     37.756949999999996     36.148400000000002
C      40.499434999999991     41.888649999999991     39.164700000000003
C      36.688134999999996     36.669849999999990     37.004400000000004
C      38.007534999999990     37.060049999999997     36.734600000000000
C      36.520634999999992     40.322649999999989     40.196300000000001
C      35.787134999999999     37.604250000000000     37.578099999999999
C      35.814234999999996     39.065749999999994     39.653200000000005
C      37.572634999999998     40.997049999999994     39.731100000000005
C      40.695334999999986     39.770949999999992     37.806800000000003
C      40.050734999999996     38.658649999999994     37.092500000000001
C      39.826134999999994     40.657449999999997     38.463799999999999
C      38.609535000000001     38.264150000000001     37.350900000000003
C      36.218734999999995     38.897349999999996     38.251000000000005
C      38.360334999999999     40.435249999999989     38.689000000000000
C      37.723934999999997     39.147949999999994     38.103300000000004
C      42.564534999999992     41.203350000000000     38.137300000000003
C      41.830935000000004     42.228649999999995     38.951600000000006
C      40.110234999999996     36.549349999999997     35.592799999999997
C      38.797534999999996     36.119749999999996     35.874100000000006
C      44.284900000000007     39.311850000000000     36.430100000000003
C      44.938765000000004     38.478649999999995     35.347799999999999
C      44.467418000000009     37.484049999999989     34.565899999999999
C      43.014734999999988     37.232650000000000     34.920599999999993
C      44.810735000000008     40.563949999999991     36.918600000000005
C      44.025132000000006     41.286049999999989     37.783799999999999
C      42.172634999999993     36.153349999999989     34.273500000000006
C      40.848435000000002     35.790749999999989     34.531800000000004
C      33.134234999999997     36.605950000000000     40.251400000000004
C      32.258834999999998     35.371649999999995     39.845900000000000
C      30.855035000000001     35.626449999999998     39.643699999999995
C      34.121535000000002     37.989750000000001     41.496899999999997
C      33.139035000000000     36.910249999999998     41.680999999999997
C      32.955435000000001     34.037849999999999     39.441499999999998
C      32.348034999999996     32.705749999999995     39.597799999999999
H      33.861434999999993     35.971849999999989     36.024400000000000
H      32.598734999999991     35.961849999999998     37.337600000000002
H      37.288634999999985     42.111049999999992     42.132599999999996
H      39.641635000000001     43.830449999999999     40.150000000000006
H      36.078735000000002     35.677149999999997     36.824800000000003
H      35.718735000000002     39.786049999999989     37.646700000000003
H      36.153134999999999     40.893749999999990     41.086300000000008
H      42.221334999999996     43.187149999999988     38.979199999999999
H      38.258434999999999     35.078649999999996     35.564499999999995
H      45.882565000000000     38.910249999999991     35.148400000000002
H      44.846005000000012     37.328949999999999     33.679400000000001
H      45.768865000000005     40.899349999999991     36.501899999999999
H      44.152502000000005     42.212750000000000     38.209400000000002
H      42.358534999999989     35.630549999999999     33.438900000000004
H      40.370335000000004     35.122650000000000     33.831600000000002
H      30.117435000000000     34.891050000000000     39.109100000000005
H      30.576335000000000     36.591249999999995     39.615200000000002
H      34.692135000000000     38.470149999999997     42.295200000000008
H      32.845435000000002     36.451349999999998     42.561099999999996
H      33.394334999999998     34.097149999999992     38.430099999999996
H      33.978535000000001     34.053950000000000     40.058500000000002
H      32.155534999999993     32.169550000000001     38.842600000000004
H      33.319735000000001     32.241249999999994     39.993900000000004
H      31.717334999999991     32.625149999999998     40.623400000000004
N      33.696434999999994     36.146549999999998     37.077900000000000
O      30.167434999999998     35.895849999999989     41.272000000000006
O      31.568034999999995     37.570749999999990     42.418800000000005
O      37.930934999999998     42.685049999999990     41.571899999999999
