39

C      40.018769999999996     40.183300000000003     38.488550000000004
C      40.156090000000006     40.924000000000007     37.230550000000008
C      37.071230000000000     37.739600000000010     39.241750000000010
C      36.293230000000015     38.265999999999998     38.059450000000012
C      39.048830000000002     37.808000000000007     40.675150000000002
C      38.886750000000006     40.547600000000010     36.523250000000004
C      38.394640000000003     38.172000000000011     39.395950000000013
C      36.726130000000005     39.200200000000009     37.091650000000001
C      38.661280000000005     39.466400000000007     38.668550000000010
C      38.063271999999998     39.708600000000011     37.423950000000005
C      41.192999999999998     40.017900000000012     39.237550000000013
C      42.503899999999994     40.315900000000006     38.897250000000000
C      42.678680000000000     40.985900000000008     37.686049999999994
C      41.557129999999994     41.462899999999998     36.793350000000004
C      36.450930000000021     36.802100000000010     40.146450000000002
C      34.583129999999990     36.493500000000012     38.689450000000008
C      35.406030000000001     35.965300000000006     39.692650000000015
C      34.901330000000016     37.615400000000008     37.990650000000002
C      41.979009999999995     41.919900000000005     35.457450000000009
C      35.775529999999996     34.575700000000005     39.055949999999996
C      38.033454000000006     40.918500000000009     35.505350000000007
C      33.333530000000010     35.941400000000009     37.852150000000009
C      34.413629999999991     35.717400000000005     40.624050000000011
H      36.046129999999991     39.486500000000007     36.273350000000008
H      40.840000000000003     39.545900000000010     40.149650000000008
H      43.360639999999997     40.223199999999999     39.688950000000006
H      43.588170000000005     41.557800000000007     37.363650000000007
H      37.043930000000010     36.530600000000007     41.026049999999998
H      34.175729999999994     38.162900000000008     37.316650000000010
H      35.761330000000001     34.230200000000011     38.017650000000003
H      35.205230000000007     33.792000000000002     39.804150000000007
H      36.899829999999987     34.444900000000011     39.194450000000003
H      38.445119999999996     41.674200000000006     34.844750000000005
H      36.986630000000005     40.806300000000007     35.625850000000014
H      33.260729999999995     35.988600000000005     40.232450000000014
H      34.500729999999990     35.988400000000006     41.585049999999995
O      42.215640000000000     42.207999999999998     34.414950000000005
O      39.552729999999997     37.134000000000000     41.493250000000003
O      32.411829999999995     35.674500000000009     37.228450000000009
