11

C      38.750799999999998     37.217199999999991     38.195449999999994
C      37.456699999999998     37.894500000000001     37.953550000000000
C      37.135599999999997     39.378799999999991     37.854349999999997
H      38.257300000000001     39.715299999999999     38.184049999999999
H      39.473500000000001     37.299899999999994     37.212849999999996
H      38.457599999999999     36.202199999999998     38.428749999999994
H      36.526499999999999     37.209400000000002     38.406649999999999
H      36.959599999999995     37.501199999999997     37.138750000000002
H      36.959800000000001     39.797800000000002     36.902250000000002
H      36.578800000000001     39.546299999999995     38.788249999999998
H      39.306199999999990     37.675099999999993     39.097749999999998
