67

C      39.922499999999985     38.055049999999994     37.058149999999998
C      38.789299999999990     39.027949999999997     37.472650000000002
C      40.773800000000001     36.191549999999999     41.567049999999995
C      39.871699999999997     37.345649999999999     42.014649999999989
C      40.979499999999987     37.403849999999991     37.859849999999994
C      39.006899999999995     39.593349999999994     38.835250000000002
C      41.324700000000000     36.415349999999997     40.138649999999998
C      39.188600000000001     38.093049999999998     40.979349999999997
C      40.701900000000002     37.528250000000000     39.270849999999996
C      39.758800000000001     38.601149999999997     39.744749999999996
C      39.980200000000004     37.814850000000000     35.635049999999993
C      38.836399999999983     38.412649999999992     34.804549999999992
C      37.850900000000003     39.425150000000002     35.199650000000005
C      37.689000000000000     39.542750000000005     36.636650000000003
C      41.404400000000003     35.064749999999997     42.329750000000004
C      40.041499999999985     37.790250000000000     43.738950000000003
C      39.929299999999991     38.856749999999998     44.579749999999990
C      41.077199999999998     37.695850000000000     42.659149999999997
C      41.068999999999996     36.993050000000004     34.975949999999997
C      41.159299999999995     36.582849999999993     33.516850000000005
C      40.047999999999988     37.255350000000000     32.978249999999989
C      38.928199999999990     38.016550000000002     33.476450000000000
C      41.973099999999995     36.217050000000000     35.751649999999998
C      41.872599999999991     36.451250000000002     37.216250000000002
C      42.579999999999984     35.680850000000000     38.239349999999988
C      42.094299999999997     35.370350000000002     39.557550000000006
C      42.330800000000004     34.184850000000004     41.620450000000005
C      38.504799999999996     40.725850000000001     39.377349999999993
C      37.446499999999993     41.541649999999997     38.526449999999997
C      36.797199999999997     40.466549999999998     37.522949999999994
C      39.780099999999997     41.646549999999998     39.569849999999988
C      41.538699999999999     34.806450000000005     43.871649999999988
C      35.233799999999988     40.538249999999991     38.084750000000000
C      40.019599999999997     37.294150000000002     31.304549999999995
C      33.168999999999997     41.706849999999996     37.508949999999999
C      34.705799999999996     41.864749999999994     37.710649999999987
H      33.209699999999998     41.879150000000003     38.585549999999998
H      38.187499999999993     38.323450000000001     41.184349999999995
H      36.970300000000002     39.566350000000000     34.536649999999995
H      41.765999999999991     38.527549999999991     42.419849999999997
H      42.029799999999994     36.246149999999993     32.942750000000004
H      38.107700000000001     38.498849999999997     32.978249999999989
H      42.684199999999990     35.494250000000001     35.444549999999992
H      43.346399999999996     34.909450000000000     37.801550000000006
H      42.505999999999993     33.367350000000002     42.217249999999993
H      38.028199999999991     40.607050000000001     40.332449999999994
H      36.723599999999998     41.878949999999989     39.296149999999997
H      38.162699999999994     42.438949999999998     38.061350000000004
H      36.337100000000000     40.731349999999999     36.464449999999999
H      40.419599999999988     41.017749999999992     40.216350000000006
H      40.265599999999992     41.597949999999997     38.534850000000006
H      39.627499999999991     42.579749999999997     40.170550000000006
H      41.162699999999994     35.649949999999997     44.569550000000007
H      41.022699999999986     34.044350000000001     44.083050000000000
H      42.727600000000002     34.464350000000003     44.027850000000001
H      34.477899999999998     39.948850000000000     37.587649999999996
H      35.263199999999991     41.153449999999999     39.094750000000005
H      40.257399999999990     36.352150000000002     30.857249999999997
H      40.800300000000000     37.913450000000005     30.953150000000001
H      39.006200000000000     37.575350000000000     31.044450000000001
H      32.653599999999997     42.632649999999998     37.154349999999994
H      32.888700000000000     40.701550000000005     37.073049999999995
H      35.018999999999998     42.587049999999998     38.475250000000003
H      35.227799999999995     42.088149999999999     36.672649999999990
H      43.102200000000003     33.420049999999996     39.596949999999993
N      42.714099999999995     34.255549999999999     40.239850000000004
O      39.447200000000002     39.707249999999995     45.142750000000007
