6

C      37.605549999999994     37.379849999999998     38.098899999999993
C      38.087149999999994     38.592449999999999     38.059600000000003
H      38.134850000000007     38.849449999999997     36.946199999999997
H      37.796750000000003     36.787250000000000     39.053800000000003
H      37.229950000000002     36.815249999999999     37.260300000000001
H      38.770049999999998     39.212750000000000     38.745399999999997
