46

C      39.008099999999985     38.464950000000002     37.768899999999995
C      37.619100000000003     37.955250000000007     37.507100000000001
C      37.859300000000005     40.714549999999988     40.937499999999993
C      36.443100000000001     40.765349999999998     41.406399999999998
C      39.155000000000001     39.373849999999990     38.938400000000001
C      36.527999999999992     38.358949999999993     38.375100000000003
C      35.733599999999996     39.999749999999992     40.465799999999994
C      38.048800000000000     39.866050000000001     39.750300000000003
C      36.635899999999992     39.425049999999999     39.458900000000000
C      40.365899999999996     38.405349999999999     37.046999999999997
C      40.866500000000002     37.488749999999996     36.211179999999999
C      39.543899999999994     36.463549999999998     35.599589999999992
C      37.151399999999995     37.535650000000004     36.243130000000001
C      39.999799999999993     40.640050000000002     38.722299999999997
C      40.849299999999999     39.784850000000006     37.369300000000003
C      41.378699999999995     37.405150000000006     37.659700000000001
C      35.148399999999995     37.675950000000000     38.069599999999994
C      34.688299999999998     36.948850000000007     36.916530000000002
C      35.618499999999997     37.276749999999993     35.803879999999999
C      40.855400000000003     36.260750000000002     38.555900000000001
C      40.554500000000004     36.437250000000006     34.645470000000003
C      38.209599999999995     37.002949999999998     35.394539999999992
C      39.217399999999998     35.023249999999990     36.120170000000002
H      38.612200000000001     40.848349999999996     41.520099999999999
H      35.825599999999994     41.235050000000001     42.241799999999998
H      34.763700000000000     40.001849999999990     40.396500000000003
H      39.588799999999992     41.504049999999992     38.314999999999998
H      40.819599999999994     41.133749999999992     39.065500000000000
H      40.082399999999993     40.341850000000008     36.688689999999994
H      41.893999999999991     39.491649999999993     37.491900000000001
H      42.459400000000002     37.387250000000009     37.517099999999999
H      34.524100000000004     38.435150000000007     38.370800000000003
H      34.699299999999994     37.071250000000006     38.843999999999994
H      34.847799999999992     35.950749999999999     37.187500000000000
H      33.540599999999998     37.238450000000000     36.726060000000004
H      35.259100000000004     38.215450000000004     35.605560000000004
H      35.638599999999997     36.640349999999998     34.865610000000004
H      41.455200000000005     35.192149999999998     38.417400000000001
H      39.768499999999989     35.959950000000006     38.951599999999999
H      41.474899999999991     36.329549999999998     39.406100000000002
H      40.593699999999998     37.033550000000005     33.758200000000002
H      40.908799999999999     35.488349999999997     34.359099999999998
H      37.746700000000004     36.665450000000007     34.384240000000005
H      38.459499999999991     34.634250000000009     35.168019999999999
H      38.641499999999994     34.916750000000008     36.845039999999997
H      40.102499999999992     34.495950000000008     36.425380000000004
