6

C      37.400604999999999     38.175199999999990     38.466010499999996
C      38.656725000000009     37.833399999999997     37.891403850000003
H      36.644514999999998     37.409300000000002     38.551661500000009
H      37.031014999999996     39.189700000000002     38.630415500000005
H      38.931434999999993     36.810299999999998     37.369584499999995
H      39.355485000000002     38.586200000000005     37.708584499999986
