5

C      38.038449999999997     37.905899999999995     38.080629999999992
H      38.218149999999994     37.114400000000003     37.296630000000000
H      38.979849999999999     38.479500000000002     38.276560000000003
H      37.133550000000000     38.885599999999997     37.787379999999999
H      37.020150000000001     37.290900000000001     38.703370000000000
