5

C      37.708320000000001     38.316799999999994     38.128799999999998
C      38.605339999999998     37.612900000000003     38.920500000000004
H      37.665009999999995     38.070099999999996     37.079499999999996
H      37.161090000000002     39.443100000000001     38.509500000000003
O      38.838909999999998     36.556899999999999     38.631499999999988
