12

C      37.482474999999994     37.145299999999999     38.855999999999995
C      38.880924999999998     37.469500000000004     38.983300000000007
C      37.766044999999991     37.765500000000003     37.511599999999994
C      37.165365000000001     39.162900000000008     37.445200000000007
H      36.889204999999997     37.735000000000007     39.494099999999996
H      37.277895000000001     36.155700000000003     39.287899999999993
H      39.740114999999996     38.200099999999999     39.327700000000000
H      39.352914999999996     36.459500000000006     39.253999999999998
H      37.573765000000002     37.145700000000005     36.505900000000004
H      36.587544999999999     39.538599999999995     38.304300000000005
H      36.259885000000004     39.241000000000007     36.616099999999996
H      37.835245000000000     39.844299999999997     36.851999999999997
