5

C      38.238249999999987     37.792149999999992     37.985199999999992
H      37.188350000000000     37.865349999999992     38.119399999999999
H      38.420449999999995     38.746849999999995     37.320100000000011
H      38.668149999999997     37.634750000000011     38.786299999999997
H      38.811650000000000     37.253150000000005     37.213700000000003
