5

C      38.058449999999993     37.827899999999993     37.755799999999994
H      38.587350000000001     37.125900000000001     37.175899999999999
H      37.245050000000006     38.277300000000004     37.172699999999999
H      38.754949999999994     38.874099999999999     37.724300000000007
H      37.787850000000006     37.778700000000001     38.827300000000001
