5

C      38.098249999999993     37.752199999999988     37.852350000000001
H      38.856150000000000     37.927299999999988     37.140650000000001
H      38.396550000000005     37.267099999999999     38.859349999999999
H      37.591349999999998     38.785600000000002     38.071950000000001
H      37.143850000000000     37.214399999999998     37.293849999999999
