6

C      37.562299999999993     37.931849999999990     38.409299999999988
C      38.469400000000000     38.216450000000002     37.548599999999993
H      36.698900000000002     37.147449999999999     38.204899999999988
H      37.725400000000000     38.624549999999992     39.343499999999999
H      39.301099999999998     38.852550000000001     37.760300000000001
H      38.345399999999998     37.416049999999998     36.656500000000001
