5

C      38.102249999999991     37.858549999999994     38.038150000000002
H      38.975250000000003     37.349150000000009     37.699249999999992
H      37.024749999999997     37.596049999999991     38.242249999999999
H      38.221249999999991     38.650849999999991     37.016249999999999
H      38.445949999999996     38.408550000000005     38.983750000000001
