82

C      38.960699999999996     35.931599999999996     33.933299999999996
C      38.816800000000001     37.013000000000005     34.771399999999993
C      39.585800000000006     36.022499999999994     32.468600000000002
C      38.462300000000006     35.751100000000001     31.540800000000004
C      39.145299999999999     37.018400000000000     31.484400000000008
C      39.361099999999993     38.555399999999992     31.228400000000008
C      43.980600000000003     33.222300000000004     39.216699999999996
C      38.331700000000005     38.506900000000002     35.087300000000006
C      43.055299999999995     33.588200000000001     38.177199999999999
C      41.730200000000004     33.973100000000002     38.172100000000000
C      40.454700000000003     34.243200000000002     37.581400000000002
C      39.252900000000004     35.781500000000001     35.363000000000007
C      39.470100000000002     34.673999999999999     36.434800000000003
C      42.761800000000001     34.520000000000003     39.191199999999995
C      38.219400000000000     33.640999999999998     36.085799999999999
C      43.177600000000005     35.956099999999999     39.069200000000002
C      38.157700000000006     38.633999999999993     40.375400000000006
C      37.700800000000001     39.833100000000002     41.220100000000002
C      40.853100000000005     41.930800000000005     38.019300000000001
C      39.450399999999995     38.736699999999992     39.702200000000005
C      38.496399999999994     40.917600000000000     41.940200000000004
C      40.750700000000002     41.214800000000004     39.032000000000004
C      40.879699999999993     42.568599999999996     39.329400000000000
C      39.922699999999999     40.162899999999993     40.183800000000005
C      39.843900000000005     40.903600000000004     41.474599999999995
C      37.422600000000003     37.305399999999992     40.455099999999995
C      36.021900000000002     37.598499999999994     40.727300000000007
C      35.296099999999996     38.833499999999994     41.318300000000001
C      36.233899999999998     39.980100000000000     41.486299999999993
C      38.134899999999995     36.046600000000005     40.034900000000000
C      37.167800000000000     34.973200000000006     39.629200000000004
C      35.891700000000000     35.448200000000000     39.877499999999998
C      35.279200000000003     36.382300000000001     40.610300000000002
C      39.203900000000004     36.336200000000005     38.944199999999995
C      39.745299999999993     37.631299999999996     38.860700000000001
C      34.043400000000005     39.135199999999998     41.987700000000004
C      33.914200000000001     40.697600000000001     42.063399999999994
C      32.656700000000001     40.786699999999996     42.684999999999995
C      35.328300000000006     41.124500000000005     41.978700000000003
C      36.304899999999996     42.176400000000001     42.534200000000006
C      35.659600000000005     42.453799999999994     41.236100000000000
C      39.554700000000004     35.366800000000005     37.871700000000004
C      41.545600000000000     40.018900000000002     39.482700000000001
C      35.852400000000003     42.153200000000005     44.038300000000000
C      35.757600000000004     34.216000000000001     39.247600000000006
C      41.511299999999999     40.737899999999996     35.753600000000006
C      41.423500000000004     42.254899999999999     36.749200000000002
H      40.173600000000000     35.312799999999996     32.219300000000004
H      37.560000000000002     35.330400000000004     31.062899999999999
H      39.087399999999995     38.971699999999998     35.882900000000006
H      37.322200000000002     38.503399999999999     35.436199999999999
H      38.302100000000003     39.129099999999994     34.171200000000006
H      42.223700000000001     40.506300000000003     34.878499999999995
H      37.668499999999995     33.740300000000005     35.157000000000004
H      37.224100000000000     33.852499999999999     36.645000000000003
H      43.035899999999998     36.459799999999994     40.069999999999993
H      44.331099999999999     35.903400000000005     38.717000000000006
H      42.716899999999995     36.510100000000001     38.188600000000001
H      40.700400000000002     43.622399999999999     39.528000000000006
H      40.595800000000004     41.578899999999997     41.789800000000000
H      34.304900000000004     36.368600000000001     41.174600000000005
H      40.498499999999993     37.621500000000005     38.092599999999997
H      33.523700000000005     38.242699999999999     42.384199999999993
H      34.825500000000005     43.132100000000001     41.205799999999996
H      36.422000000000004     42.447700000000005     40.374600000000001
H      38.228500000000004     32.600900000000003     36.324700000000000
H      42.452400000000004     40.126299999999993     40.138699999999993
H      41.858100000000000     39.379899999999992     38.706700000000005
H      35.546200000000006     43.352199999999996     44.413700000000006
H      34.702300000000001     42.093399999999995     44.037400000000005
H      36.601000000000006     42.164100000000005     45.035399999999996
H      35.622700000000002     33.413900000000005     40.110699999999994
H      36.058000000000000     33.370699999999999     38.638900000000007
H      41.491900000000001     39.786000000000001     36.322600000000001
H      40.643099999999997     40.557200000000002     35.245600000000003
H      40.708799999999997     43.112899999999996     36.308099999999996
H      42.708199999999998     42.034800000000004     37.043500000000002
H      38.849000000000004     42.800899999999992     42.667600000000000
N      37.979499999999994     42.055600000000005     42.563100000000006
O      44.440399999999997     32.377600000000001     39.873699999999999
O      39.643300000000004     39.611200000000004     30.964600000000004
O      31.559600000000003     40.871300000000005     43.082199999999993
