40

C      34.757794999999987     41.152092999999986     39.077449999999999
C      39.516485000000003     36.607992999999993     37.477049999999991
C      39.956425000000010     35.223893000000004     37.764550000000000
C      38.477235000000007     40.551393000000004     40.089349999999996
C      37.221225000000004     39.895592999999991     39.650449999999992
C      39.605925000000013     37.909392999999994     38.188649999999996
C      40.519225000000006     34.799792999999994     38.982249999999993
C      40.927775000000011     41.042192999999997     40.301949999999991
C      35.898293000000010     40.387293000000000     39.472049999999996
C      39.827225000000013     40.008093000000002     39.936749999999989
C      36.200915000000009     39.024992999999995     38.947649999999996
C      39.009405000000001     36.668292999999991     36.071650000000005
C      38.774064999999993     35.547192999999993     35.290649999999999
C      38.837925000000013     34.172093000000004     35.647350000000003
C      39.678295000000006     33.963392999999996     36.886349999999993
C      40.025835000000001     42.172523700000006     40.572549999999993
C      38.544295000000005     41.835193000000004     40.566649999999996
C      40.118415000000013     38.689792999999995     39.342349999999996
C      39.181945000000013     38.925992999999991     37.144649999999999
C      39.157375000000002     38.239492999999996     35.866249999999994
C      40.204945000000009     40.025693000000004     36.845049999999986
C      35.424429000000003     38.141892999999996     38.120149999999995
H      41.963205000000002     40.929492999999994     40.287450000000007
H      38.379175000000004     35.612093000000002     34.233750000000001
H      38.348805000000013     33.314692999999991     35.096350000000001
H      40.122835000000009     32.970092999999991     36.930250000000001
H      40.227555000000009     43.029907000000009     41.112750000000005
H      37.742975000000001     42.807847000000002     39.990549999999999
H      41.272765000000007     38.581793000000005     39.419849999999997
H      38.148845000000009     39.186792999999994     37.206349999999986
H      38.147014999999996     38.494893000000005     35.304749999999999
H      40.035465000000002     38.543693000000005     35.318550000000002
H      38.449865000000003     41.847892999999999     41.766249999999999
H      34.720195000000004     38.441992999999997     37.421850000000006
H      41.315825000000004     39.979893000000004     37.129549999999995
H      40.619345000000010     40.183492999999999     35.617350000000002
H      40.038535000000010     40.962793000000005     37.443849999999998
H      35.663659000000010     37.097493000000000     37.873750000000001
O      34.036794999999998     41.924092999999999     38.540149999999997
O      41.089345000000009     34.888092999999998     39.959549999999993
