5

C      37.667849999999994     38.733729999999994     37.995649999999991
C      38.383949999999999     37.540760000000006     38.100349999999992
H      36.877049999999997     39.073169999999998     37.302650000000000
H      39.122950000000003     37.345760000000006     38.896650000000001
H      38.389850000000010     36.926830000000002     37.103349999999999
