5

C      37.773549999999993     38.154849999999996     38.024749999999997
H      37.045850000000002     38.510650000000005     38.820549999999997
H      37.366650000000000     38.822949999999999     37.179450000000003
H      38.954149999999998     38.092250000000007     38.626149999999996
H      37.473849999999999     37.177050000000001     37.735749999999996
