14

C      39.920999999999999     36.915589999999995     38.354799999999997
C      39.173000000000002     36.842789999999994     39.709999999999994
C      39.163200000000003     38.036688999999996     38.603900000000003
C      39.739000000000004     37.880407000000005     37.202800000000003
C      37.970700000000001     39.569050000000004     36.663000000000004
C      39.148000000000003     38.921690000000012     36.362600000000008
C      37.629500000000007     38.314770000000010     38.746700000000004
C      37.072399999999995     39.042520000000010     37.788800000000002
H      38.665500000000002     35.855289999999997     39.654100000000000
H      39.867300000000007     36.986989999999992     40.500399999999999
H      37.708900000000007     40.144710000000003     35.574100000000001
H      39.782500000000006     39.188400000000001     35.499600000000001
H      36.998300000000008     38.293812000000003     39.585299999999997
H      36.079000000000001     39.208330000000004     37.568800000000003
