6

C      38.013199999999998     37.960449999999994     37.363294999999994
C      38.159399999999991     38.015449999999994     38.751954999999995
H      36.917500000000004     37.651650000000004     37.307155000000002
H      38.777699999999996     38.348349999999996     36.705505000000002
H      37.274900000000002     37.825150000000001     39.209755000000001
H      39.082499999999996     38.146950000000004     39.294494999999998
