53

C      34.453504999999993     43.780799999999999     39.068899999999992
C      33.023914999999995     45.456100000000006     39.760500000000000
C      40.576704999999997     34.434100000000001     38.763499999999993
C      41.008704999999999     35.301400000000001     39.748800000000003
C      37.404904999999999     38.289900000000003     37.068599999999996
C      38.083104999999989     39.342100000000009     37.903400000000005
C      39.514604999999996     35.002500000000005     37.858299999999993
C      40.758704999999999     36.665599999999998     39.384399999999999
C      37.826205000000002     36.940599999999996     37.083899999999993
C      39.233504999999994     38.760200000000005     38.586600000000004
C      39.003205000000001     36.368400000000001     37.779600000000002
C      39.749305000000000     37.423100000000005     38.615400000000001
C      41.074005000000000     33.059200000000004     38.644800000000004
C      42.281104999999997     32.703900000000004     39.448499999999989
C      42.702804999999991     33.632300000000001     40.507400000000004
C      42.191504999999999     34.952900000000000     40.635500000000000
C      37.159904999999995     40.191499999999998     38.805000000000000
C      36.167605000000002     40.782100000000007     37.937299999999993
C      37.770004999999998     39.646200000000000     36.411299999999997
C      36.717604999999999     40.845200000000006     36.552999999999997
C      40.571204999999992     32.310000000000002     37.555299999999995
C      41.886704999999999     31.381800000000005     37.499700000000004
C      41.969204999999995     30.616499999999995     36.296499999999988
C      42.738504999999996     31.528800000000004     38.679299999999991
C      39.384704999999997     32.922600000000003     36.851100000000002
C      38.493204999999989     33.856300000000005     37.439999999999991
C      37.548804999999994     34.595100000000002     36.594099999999997
C      37.274704999999990     35.985999999999997     36.220199999999998
C      36.663504999999994     41.587100000000000     35.322800000000001
C      38.065904999999994     33.332999999999998     38.877099999999999
C      35.121104999999993     41.662000000000006     38.371700000000004
H      32.359794999999998     45.063899999999997     38.868299999999998
H      41.418005000000001     36.979500000000002     40.097600000000000
H      39.626004999999999     39.472200000000008     39.397800000000004
H      43.640205000000002     33.520500000000006     41.166399999999996
H      42.432104999999993     35.459500000000006     41.476900000000001
H      37.466005000000003     40.327000000000005     39.789500000000004
H      43.540105000000004     30.950600000000001     39.029600000000002
H      39.661804999999994     33.280400000000000     35.895400000000002
H      37.012004999999995     33.958200000000005     35.829000000000001
H      37.200704999999999     36.019700000000000     35.146599999999992
H      36.114604999999997     42.555200000000006     35.176499999999997
H      37.258304999999993     41.148400000000002     34.523099999999999
H      38.780104999999999     32.538600000000002     39.233100000000000
H      38.056604999999998     34.178500000000000     39.611699999999992
H      37.070904999999996     32.884900000000002     38.808700000000002
H      34.507704999999994     41.222600000000007     39.221499999999992
H      34.546005000000001     42.190200000000004     37.482500000000002
H      38.510404999999999     39.451000000000001     35.634500000000003
O      33.265484999999998     43.782200000000003     39.413199999999996
O      33.288305000000001     46.076000000000001     40.656999999999996
O      42.365504999999999     29.923999999999999     35.475999999999999
O      35.539104999999999     43.486700000000006     38.608899999999998
