42

C      36.540849999999992     35.212319999999984     41.127169999999992
C      37.669350000000009     34.670419999999993     40.370300000000000
C      39.402750000000012     38.914919999999988     35.920560000000002
C      36.528850000000006     36.576719999999987     41.151110000000003
C      38.491650000000007     39.943719999999992     36.573700000000002
C      38.351949999999988     35.540519999999987     39.410090000000004
C      39.607350000000011     37.755719999999997     36.948080000000004
C      37.159950000000009     38.849119999999999     40.379620000000003
C      37.430950000000010     39.676019999999987     39.131899999999995
C      37.142150000000001     37.504019999999997     40.057910000000000
C      37.964749999999995     39.138119999999979     37.924620000000004
C      37.769450000000006     36.849419999999988     38.807259999999999
C      38.406850000000006     37.682819999999992     37.768030000000003
C      35.845250000000007     34.079519999999988     41.775269999999999
C      36.225050000000010     32.722219999999993     41.815559999999991
C      37.533250000000010     32.233319999999992     41.375200000000000
C      38.283550000000005     33.282419999999988     40.621810000000004
C      39.206149999999994     34.749719999999996     38.405349999999999
C      39.900650000000013     39.005719999999997     34.333719999999992
C      40.952550000000002     38.406519999999986     36.471800000000002
C      38.938850000000002     42.455539999999999     36.216940000000001
C      39.396549999999991     41.340260999999998     37.134410000000003
C      39.262150000000005     43.723479999999995     36.546779999999998
H      35.572250000000011     36.871419999999979     41.803069999999998
H      37.816649999999996     40.067819999999998     35.750637000000005
H      36.576750000000004     39.396019999999993     41.444720000000004
H      36.980149999999995     40.853743000000001     38.956659999999999
H      34.784350000000003     34.200419999999994     42.191799999999994
H      35.748350000000002     31.979119999999995     42.400480000000002
H      37.931650000000005     31.140619999999998     41.747710000000005
H      39.366550000000004     32.933819999999997     40.508020000000002
H      39.146950000000004     34.891319999999993     37.305640000000004
H      39.406649999999999     33.747519999999994     38.486380000000004
H      38.787549999999996     39.158519999999996     34.219319999999996
H      40.224049999999991     40.036319999999982     33.864819999999995
H      41.215649999999997     37.631519999999995     35.388021000000002
H      41.212450000000004     39.159119999999987     36.971420000000002
H      40.155950000000004     38.233919999999998     33.599519999999998
H      40.426650000000009     41.133403999999999     37.190130000000003
H      39.581450000000004     41.451830999999999     38.333480000000002
H      38.849050000000005     42.060980000000001     35.236411000000004
O      39.748150000000010     44.859380000000002     36.744019999999999
