246

C      42.924831399999995     41.397799999999997     30.403899999999997
C      41.811739999999993     37.630700000000004     29.795700000000000
C      42.063740000000003     39.204900000000002     29.731000000000005
C      42.724139999999998     41.994800000000005     31.852900000000002
C      41.938240000000000     40.589400000000005     29.652300000000007
C      43.053379000000007     39.916200000000003     30.450299999999995
C      41.118639999999992     39.814900000000002     28.536899999999992
C      41.949239999999996     35.449400000000004     31.242100000000004
C      42.237440000000007     36.847700000000003     30.902800000000003
C      38.115840000000006     33.995700000000006     29.321000000000009
C      40.024940000000001     35.848800000000004     29.661600000000004
C      40.482740000000007     33.094899999999996     32.405900000000003
C      40.505140000000011     37.208900000000007     29.259100000000000
C      39.743340000000011     35.299800000000005     31.983000000000001
C      39.769040000000004     33.808499999999995     31.321700000000003
C      40.501939999999998     35.147900000000007     30.868900000000000
C      42.496940000000009     34.850699999999996     32.455900000000000
C      43.902990000000003     35.338899999999995     32.884600000000006
C      44.485369999999996     36.499800000000008     32.219900000000010
C      43.724781000000007     37.181800000000003     31.297100000000004
C      37.370539999999998     33.406500000000001     28.254399999999993
C      37.457739999999994     34.473100000000002     27.211000000000002
C      38.539740000000002     35.428500000000007     27.465300000000003
C      38.845840000000003     35.226000000000006     28.911899999999999
C      41.743440000000007     33.670500000000004     32.964299999999994
C      42.498840000000001     33.134400000000007     34.129599999999996
C      43.896169999999998     33.448400000000007     34.430400000000006
C      44.591420000000006     34.604699999999994     33.929200000000009
C      39.749740000000003     35.521799999999999     33.558900000000008
C      44.686470000000000     32.476599999999998     35.154800000000009
C      36.587039999999995     34.669399999999996     25.986200000000007
C      38.570640000000019     40.828900000000004     35.647300000000001
C      37.726140000000001     41.981500000000004     35.754800000000003
C      38.960439999999998     37.921800000000005     38.331299999999999
C      36.184040000000003     38.017700000000005     38.832700000000003
C      38.972940000000001     39.617100000000008     35.132500000000007
C      36.334640000000007     42.305900000000001     36.275599999999997
C      37.269539999999999     37.055600000000005     39.637900000000002
C      38.384639999999997     39.529400000000003     36.388599999999997
C      38.296040000000012     38.224800000000002     37.100600000000000
C      42.620940000000004     40.135300000000008     33.181300000000007
C      43.695673999999997     41.278400000000005     32.736199999999997
C      41.937440000000002     40.994399999999999     32.482100000000003
C      36.697340000000004     42.768599999999999     34.933100000000010
C      39.589140000000000     38.595100000000002     34.181800000000010
C      41.310340000000018     38.585000000000008     34.715500000000006
C      42.458539999999999     38.697600000000001     33.766799999999989
C      44.974010000000007     41.123000000000005     31.854899999999997
C      39.296640000000018     39.314200000000007     32.764800000000008
C      39.009240000000005     37.182300000000005     33.824500000000000
C      43.733908000000000     38.177900000000008     34.463099999999997
C      36.520840000000000     43.417299999999997     33.739300000000000
C      42.232540000000000     43.471200000000003     31.905200000000004
C      35.829640000000012     41.908200000000008     40.410200000000003
C      36.565639999999995     40.888400000000004     39.840900000000005
C      35.983640000000001     41.810900000000004     38.945499999999996
C      35.912940000000006     42.612100000000005     37.662099999999995
C      36.247740000000015     40.660200000000003     41.165399999999991
C      32.015640000000005     32.255900000000004     47.908000000000001
C      37.578040000000001     37.767700000000005     38.352699999999999
C      34.717640000000003     37.181100000000008     38.410499999999999
C      41.913740000000011     39.775300000000001     47.796199999999999
C      40.932340000000011     39.834100000000007     46.672199999999989
C      33.663739999999990     40.298400000000008     42.101600000000005
C      40.553239999999995     37.470200000000006     45.249700000000004
C      34.435639999999999     40.776100000000007     43.262000000000000
C      35.644739999999992     38.790500000000002     44.259999999999991
C      40.853740000000002     40.697000000000003     47.862299999999991
C      35.631340000000016     40.916700000000006     45.587800000000001
C      35.868040000000001     40.100600000000007     46.753900000000002
C      37.293540000000007     40.013400000000004     42.121800000000007
C      38.208240000000004     41.685900000000004     44.061899999999994
C      35.708440000000003     40.306300000000007     44.111400000000003
C      40.940539999999991     38.862000000000002     45.592999999999989
C      36.125539999999994     37.327300000000008     44.072100000000006
C      38.276540000000004     40.088900000000002     43.612499999999997
C      38.324939999999998     38.671400000000006     44.104299999999995
C      41.978540000000017     38.102600000000002     44.810200000000009
C      37.942339999999994     38.017100000000006     45.421199999999999
C      36.345540000000000     38.045400000000008     45.045000000000002
C      39.134140000000002     37.581200000000003     44.821199999999990
C      37.105940000000011     40.925100000000008     43.403400000000005
C      43.057597999999999     38.747100000000003     47.976199999999992
C      42.764239999999994     37.441900000000004     47.606600000000000
C      41.785840000000007     36.290400000000005     47.237600000000000
C      40.788640000000001     36.460100000000004     46.296700000000001
C      32.589140000000000     41.033500000000004     41.325199999999995
C      32.871440000000000     42.656500000000001     41.446200000000005
C      33.901340000000005     43.108300000000000     42.321500000000000
C      34.393540000000002     42.280400000000000     43.382099999999994
C      35.115140000000011     42.983400000000003     44.531700000000001
C      35.634140000000002     42.405200000000001     45.693899999999999
C      44.330990000000007     39.392900000000004     48.402100000000004
C      45.518620000000006     38.595300000000002     48.186099999999996
C      45.272349999999996     37.174900000000008     47.816000000000003
C      43.964420000000004     36.545899999999996     47.453499999999991
C      32.367539999999998     43.426300000000005     40.311999999999998
C      43.174596999999999     38.070000000000007     44.244399999999999
C      33.629639999999995     39.023700000000005     41.604500000000002
C      46.776130000000002     41.841600000000007     49.535399999999996
C      46.760270000000006     42.251100000000001     46.969600000000000
C      46.052819999999997     41.327900000000007     46.076300000000003
C      43.926150000000007     42.544499999999999     46.770600000000002
C      45.971740000000004     43.451400000000007     48.917400000000001
C      44.878569999999996     42.816800000000008     47.917299999999997
C      46.144610000000007     42.350200000000008     48.360200000000006
C      42.706139999999998     42.209500000000006     47.330900000000000
C      44.568630000000006     41.447500000000005     45.928899999999999
C      32.733439999999987     41.663000000000004     48.766000000000005
C      28.957239999999985     34.990900000000003     46.012400000000000
C      29.794940000000004     35.647100000000002     47.205100000000002
C      31.575640000000000     37.262700000000002     46.614100000000008
C      31.493540000000010     38.128100000000003     45.415199999999999
C      30.426740000000009     41.458200000000005     46.864300000000000
C      31.614540000000005     37.927400000000006     47.975999999999999
C      31.435440000000000     39.602100000000000     45.648200000000003
C      30.672939999999990     40.733400000000003     48.087699999999998
C      31.347940000000001     39.352400000000003     48.176699999999997
C      31.140439999999991     40.233900000000006     46.937100000000001
C      31.293040000000005     35.752800000000008     46.662599999999998
C      31.417040000000000     35.094800000000006     45.344399999999993
C      31.365639999999992     35.963900000000002     44.005299999999991
C      31.347940000000001     37.445300000000003     44.066600000000008
C      32.223340000000000     35.152000000000008     47.721099999999993
C      32.303040000000010     33.724499999999999     47.651800000000009
C      32.025139999999993     33.017600000000002     46.515200000000007
C      31.540039999999998     33.684300000000007     45.294100000000000
C      32.792439999999999     35.694900000000004     48.951299999999989
C      32.521740000000008     37.228100000000005     48.905599999999993
C      31.165540000000007     35.351100000000002     42.682000000000002
C      31.576739999999994     36.177500000000002     41.443899999999999
C      31.157740000000004     37.587500000000006     41.601399999999998
C      31.061839999999997     38.225600000000007     42.905799999999999
C      30.949240000000003     40.333400000000005     44.396700000000010
C      30.872340000000001     39.703400000000002     43.149000000000001
C      33.301839999999999     37.954300000000003     49.417800000000000
C      31.211539999999992     41.528900000000000     49.372199999999992
C      32.176540000000003     34.903900000000000     41.851399999999998
C      32.035240000000002     34.913100000000000     40.360900000000001
C      33.483439999999995     32.585700000000003     48.716700000000003
C      33.180640000000004     33.492000000000004     50.093800000000002
C      33.499339999999997     34.995400000000004     50.102400000000003
C      29.879940000000005     34.784600000000005     42.692900000000009
C      31.165939999999999     40.707100000000004     41.922800000000009
H      40.188039999999994     40.143300000000004     28.957000000000004
H      41.441540000000010     39.997100000000003     27.520000000000007
H      36.656940000000013     35.404300000000006     25.044800000000006
H      40.194640000000007     37.888000000000005     28.449000000000002
H      45.551010000000005     36.782500000000006     32.191400000000002
H      44.195819999999998     37.935600000000008     30.676800000000004
H      36.996239999999993     32.432200000000002     28.177400000000002
H      38.325340000000011     35.844500000000004     26.397400000000001
H      42.140039999999992     32.229600000000005     34.528400000000005
H      45.450559999999996     34.952300000000008     34.467799999999997
H      39.038739999999997     34.652100000000004     33.949500000000000
H      40.823040000000006     35.513600000000004     33.922600000000003
H      44.228079999999999     31.580000000000002     35.588399999999993
H      45.302580000000006     32.000300000000003     34.206500000000005
H      45.345729999999996     32.862699999999997     36.035400000000010
H      36.547639999999987     33.562599999999996     25.810200000000005
H      35.734639999999999     35.423800000000007     26.249000000000006
H      39.691540000000010     38.417800000000007     38.965200000000010
H      36.054740000000010     38.944900000000004     39.466700000000003
H      37.252940000000009     37.485300000000002     40.637400000000000
H      41.291040000000010     39.339399999999998     35.414500000000004
H      41.650640000000003     37.917200000000001     35.457599999999999
H      42.232040000000012     38.003900000000002     32.972499999999997
H      40.187940000000005     39.679100000000005     32.356300000000005
H      38.743040000000001     40.254400000000004     32.968400000000003
H      38.863639999999997     38.430900000000001     31.961500000000004
H      38.564340000000001     37.454200000000007     32.882500000000007
H      37.940940000000012     37.161600000000007     34.145799999999994
H      43.515342000000004     38.313800000000001     35.579099999999997
H      44.570960000000007     38.996300000000005     34.144700000000000
H      43.751363000000005     37.064500000000002     34.038299999999992
H      36.192439999999998     44.420000000000002     33.814099999999996
H      37.381340000000016     43.464600000000004     33.101900000000001
H      35.760039999999996     43.174600000000005     33.099600000000009
H      41.156739999999999     43.715900000000005     31.937899999999996
H      42.073540000000015     43.900799999999997     30.867200000000000
H      42.748140000000006     44.171200000000006     32.548599999999993
H      35.700139999999998     43.645000000000003     37.830799999999996
H      39.118040000000008     32.311699999999995     30.011000000000006
H      30.961240000000004     32.061299999999996     48.396400000000000
H      36.733339999999991     36.064800000000005     39.612399999999994
H      34.796740000000000     36.869300000000003     37.295999999999992
H      33.974839999999993     37.914600000000007     38.582099999999997
H      34.593940000000003     36.371400000000001     39.138799999999989
H      37.059940000000005     38.899500000000003     42.314200000000000
H      37.936540000000008     42.346399999999996     44.873999999999995
H      38.656340000000007     42.608100000000000     43.474800000000002
H      42.069540000000003     35.392199999999995     47.745100000000008
H      39.896140000000010     35.943500000000007     45.914900000000003
H      32.459540000000004     40.654200000000003     40.353200000000001
H      34.272939999999998     44.002500000000005     42.385399999999990
H      34.939740000000008     43.981300000000005     44.686499999999995
H      35.584740000000018     42.953299999999999     46.614900000000006
H      44.601529999999997     40.554900000000004     48.566699999999997
H      46.594480000000004     38.952800000000003     48.633600000000001
H      46.182030000000005     36.864500000000000     47.436000000000007
H      43.808002999999999     35.582800000000006     46.937299999999993
H      39.707439999999998     40.517300000000006     47.923299999999998
H      32.967040000000011     38.665799999999997     40.792599999999993
H      34.479939999999999     38.517900000000004     41.826500000000010
H      34.474040000000002     36.552900000000008     43.540399999999991
H      47.773060000000008     41.561199999999999     48.884500000000003
H      45.997750000000003     41.508300000000006     50.106800000000007
H      47.648629999999997     42.716500000000003     46.597099999999998
H      46.411890000000007     40.772900000000007     45.122200000000007
H      46.415220000000005     44.306100000000008     48.447999999999993
H      44.069810000000004     41.122000000000007     45.102600000000010
H      36.008339999999997     35.246099999999998     43.964200000000005
H      33.355240000000009     40.673199999999994     48.713999999999999
H      33.182240000000000     42.715600000000002     49.145300000000006
H      32.599339999999998     42.208700000000000     47.715699999999998
H      29.368740000000010     36.701100000000004     47.500399999999999
H      29.676740000000002     35.137000000000000     48.083600000000004
H      29.524940000000008     41.078700000000005     46.317399999999992
H      30.709739999999996     38.189000000000007     40.759100000000004
H      31.041840000000008     41.460300000000004     44.418800000000005
H      32.769939999999998     38.648000000000003     50.039199999999994
H      34.363039999999991     37.217200000000005     49.524400000000000
H      30.778740000000013     42.567300000000003     49.368799999999993
H      31.470739999999999     41.163200000000003     50.450000000000003
H      31.619540000000001     33.103200000000001     44.354300000000009
H      31.079140000000010     34.396599999999999     39.788600000000002
H      32.990140000000004     34.988100000000003     39.620300000000000
H      33.881440000000005     31.583700000000004     48.960300000000004
H      34.502739999999996     32.686599999999999     47.874600000000001
H      33.831639999999993     33.082900000000002     50.934899999999999
H      32.154840000000000     33.347300000000004     50.202500000000001
H      33.132440000000003     35.392899999999997     50.955199999999991
H      34.436540000000008     35.180400000000006     49.864100000000008
H      29.162240000000011     35.079999999999998     41.988599999999991
H      30.090440000000015     33.725000000000001     42.220700000000008
H      30.696240000000003     40.131000000000007     41.037800000000004
H      30.580539999999992     41.651200000000003     41.863600000000005
N      38.492040000000003     33.050500000000000     30.344000000000005
N      35.396139999999995     36.045700000000004     43.713700000000003
O      40.038240000000002     32.232600000000005     33.077300000000008
O      45.654490000000003     40.993000000000002     30.954000000000004
O      31.754439999999988     44.156799999999997     39.657699999999991
O      44.208350000000003     38.286900000000003     43.758700000000005
O      36.348840000000003     39.592799999999997     47.623499999999993
O      41.547540000000005     42.133000000000003     47.741500000000002
O      28.226939999999992     34.553800000000003     45.336799999999997
