10

C      37.751509999999996     36.639699999999991     37.532749999999993
C      37.577820000000003     37.819299999999991     38.550449999999998
C      38.317440000000005     39.311000000000000     38.088650000000001
H      39.403440000000003     39.364599999999996     38.366450000000000
H      37.883139999999997     36.725099999999998     36.415549999999996
H      36.596559999999997     37.773999999999994     38.246650000000002
H      37.745339999999999     37.634899999999988     39.584450000000004
H      38.310590000000005     39.308599999999998     36.846450000000004
H      38.033670000000001     40.286799999999999     38.773949999999985
O      38.282210000000006     35.713200000000001     37.930750000000003
