6

C      37.498599999999996     37.134304999999998     37.718649999999997
C      38.788600000000002     37.384174999999999     37.575550000000000
C      39.453099999999992     38.493974999999992     38.502050000000004
H      39.308999999999997     36.649725000000004     36.870750000000001
O      36.353300000000004     36.659115000000000     37.957950000000004
O      39.646699999999996     39.350274999999996     39.129249999999999
