54

C      32.722264999999993     37.727149999999995     40.327624999999998
C      36.417785000000002     38.593290000000003     38.222225000000002
C      35.717764999999993     38.796959999999991     39.557925000000004
C      40.569315000000003     36.472699999999996     40.129625000000004
C      39.677915000000006     36.262880000000003     41.311725000000003
C      37.690455000000000     38.033020000000000     38.101745000000008
C      36.221674999999998     37.821010000000001     40.466525000000004
C      39.902414999999998     36.941650000000003     38.956525000000006
C      38.231614999999991     36.568399999999997     41.545925000000004
C      38.435414999999999     37.317689999999999     39.138625000000005
C      37.598145000000002     37.295329999999993     40.448425000000007
C      35.676544999999997     38.701399999999992     37.005705000000006
C      34.309815000000000     39.345659999999995     37.236215000000009
C      33.489734999999996     39.403820000000003     38.514465000000008
C      34.247894999999993     39.164099999999991     39.623525000000008
C      41.963814999999997     36.276259999999994     40.517525000000006
C      41.903515000000006     35.971150000000002     41.972225000000002
C      40.606915000000001     35.984389999999998     42.500625000000007
C      36.192014999999998     38.348689999999998     35.622355000000006
C      35.406235000000002     38.448380000000000     34.464505000000003
C      34.149615000000004     39.335349999999991     34.638315000000006
C      33.858045000000004     39.814190000000004     35.899185000000003
C      38.569115000000004     38.282809999999998     36.815855000000006
C      39.902915000000000     38.118839999999999     36.797685000000001
C      40.641214999999995     37.217070000000000     37.713615000000004
C      40.363614999999996     37.640169999999998     35.355105000000002
C      39.615914999999994     39.610599999999998     37.053145000000008
C      33.454264999999999     39.146790000000003     40.889524999999999
C      35.649654999999996     37.671090000000000     33.166425000000004
C      43.331214999999993     36.641750000000002     39.829525000000004
H      33.264305000000000     37.301119999999997     39.293324999999996
H      32.840934999999995     36.667819999999999     40.726725000000002
H      31.711984999999999     37.897939999999991     39.821425000000005
H      38.174614999999996     38.425509999999996     34.640085000000006
H      35.412455000000001     37.498660000000001     41.334125000000000
H      37.706724999999999     36.472329999999999     42.520125000000007
H      32.449744999999993     39.634490000000000     38.625805000000007
H      42.761215000000000     35.594259999999998     42.433825000000006
H      40.393014999999998     35.907480000000000     43.586024999999999
H      33.468774999999994     39.398769999999999     33.769934999999997
H      32.990515000000002     40.405740000000002     35.925564999999999
H      41.828515000000003     37.551060000000000     37.871405000000003
H      40.334515000000003     36.542220000000000     35.429324999999999
H      39.664314999999995     38.140560000000001     34.648705000000007
H      41.455514999999998     37.930659999999989     35.115945000000004
H      39.620214999999995     40.242269999999998     36.275155000000005
H      40.626715000000004     39.944279999999992     37.386175000000001
H      34.268385000000002     38.946050000000000     41.453325000000007
H      32.716664999999999     40.005450000000003     41.748725000000007
H      35.841184999999996     38.441710000000000     32.413975000000001
H      34.756605000000000     37.335500000000003     32.637835000000003
H      36.613665000000005     37.180489999999999     33.244725000000003
N      37.594565000000003     37.875279999999989     35.482925000000009
O      44.288015000000001     36.934699999999999     39.401325000000007
