87

C      37.648430000000005     34.234299999999990     35.549299999999995
C      37.970280000000002     35.081200000000010     36.680899999999994
C      32.092650000000006     38.436299999999989     32.697900000000004
C      34.717280000000002     38.869399999999999     36.682900000000004
C      36.763730000000010     34.502400000000009     34.519300000000001
C      32.630174000000011     39.355100000000007     33.587900000000005
C      33.863930000000011     39.700900000000004     35.931300000000000
C      32.796156000000011     37.107399999999998     32.594799999999999
C      37.038250000000005     36.231800000000007     36.926699999999997
C      35.818480000000008     38.957100000000011     37.836300000000001
C      34.815860000000001     35.567300000000003     33.499499999999991
C      33.587290000000010     38.912599999999998     34.681600000000003
C      35.767900000000012     35.557199999999995     34.683700000000002
C      33.995880000000000     36.760600000000011     33.479100000000003
C      35.982350000000011     36.435800000000000     35.986699999999999
C      34.910190000000000     37.522199999999998     35.949900000000000
C      34.153850000000006     37.565199999999990     34.705800000000004
C      38.645220000000009     33.361300000000000     34.869399999999999
C      39.823700000000002     32.982299999999995     35.601200000000006
C      40.210690000000000     33.655200000000008     36.818500000000000
C      39.369180000000000     34.730999999999995     37.295900000000003
C      30.830149999999996     39.029600000000002     31.962399999999995
C      30.536049999999999     40.380999999999986     31.637900000000002
C      31.404149999999994     41.344999999999999     32.228700000000003
C      32.110450000000000     40.779100000000000     33.408600000000000
C      39.645290000000003     35.642699999999991     38.350499999999990
C      32.094849999999994     36.245800000000003     31.704400000000000
C      39.126919999999998     42.770199999999988     44.730699999999999
C      42.461650000000006     39.052699999999987     40.263699999999993
C      43.810850000000002     38.731999999999985     39.774299999999997
C      41.216130000000007     37.349899999999991     36.289999999999999
C      41.783320000000003     37.751299999999986     40.114899999999999
C      43.920450000000002     37.209199999999996     39.435299999999991
C      42.633650000000003     36.623200000000011     39.966400000000000
C      40.306569999999994     38.370699999999985     36.957300000000004
C      41.412180000000006     37.125500000000002     38.953800000000001
C      41.514120000000005     37.737000000000009     37.478199999999994
C      42.024169999999998     40.141600000000011     41.340100000000007
C      43.170450000000002     40.899899999999988     41.784199999999998
C      44.515750000000011     40.518200000000007     41.260100000000001
C      44.986950000000007     39.414600000000007     40.398099999999999
C      40.617000000000004     40.323900000000009     41.687500000000000
C      41.770110000000003     42.300300000000007     43.315700000000000
C      40.928480000000008     41.347099999999998     42.751300000000001
C      43.093650000000011     42.095300000000009     42.655299999999997
C      40.767989999999998     37.773200000000003     41.418899999999994
C      40.002449999999996     39.003399999999999     41.695400000000006
C      40.294079999999994     42.189599999999984     43.968599999999995
C      42.762250000000009     37.289500000000004     36.814699999999995
C      39.277889999999999     38.987300000000005     43.180800000000005
C      38.862380000000002     38.943700000000007     37.075299999999999
H      35.935739999999996     39.966400000000007     38.532899999999998
H      36.720359999999999     33.899799999999999     33.655900000000003
H      33.596419999999995     40.842800000000011     36.035599999999995
H      37.339500000000001     36.786199999999994     37.679799999999993
H      35.764570000000006     38.082700000000003     38.341300000000004
H      36.731530000000006     39.544100000000000     37.443200000000004
H      34.848730000000003     34.851900000000001     32.728999999999992
H      38.588790000000003     33.116799999999998     33.587400000000002
H      40.375090000000000     32.231700000000004     35.222300000000004
H      41.094580000000008     33.535600000000002     37.442500000000003
H      29.938049999999993     40.386000000000010     30.640000000000001
H      31.447050000000011     42.419399999999996     31.410200000000003
H      32.581369000000009     41.678700000000006     34.076599999999999
H      31.163950000000014     36.642899999999997     31.261200000000002
H      32.360759000000002     35.182099999999991     31.461200000000005
H      39.356140000000011     43.768299999999996     45.155600000000007
H      38.405540000000002     42.312599999999989     45.359999999999999
H      40.934910000000002     36.509600000000006     35.553699999999999
H      42.160970000000006     35.980900000000005     40.743499999999997
H      45.094650000000001     41.602900000000005     41.528000000000006
H      46.061950000000010     39.341400000000007     40.102200000000003
H      43.975949999999997     42.779699999999991     43.118000000000002
H      41.394280000000009     37.601200000000006     42.423100000000005
H      40.030500000000004     36.860500000000002     40.936699999999995
H      39.073490000000007     39.035000000000011     40.880999999999993
H      43.519250000000000     37.356099999999998     35.891800000000003
H      43.124250000000004     38.290999999999997     37.231800000000000
H      39.116090000000000     39.929200000000009     43.600600000000000
H      39.847819999999999     38.558999999999997     44.095799999999997
H      38.109420000000000     38.596699999999998     43.024799999999999
H      37.989380000000011     38.967699999999994     36.503599999999999
H      38.423509999999993     38.287799999999990     38.014700000000005
H      39.289619999999999     39.894800000000004     37.321700000000007
O      39.680840000000003     36.604600000000005     39.014300000000006
O      30.030750000000005     38.084299999999999     31.711199999999998
O      44.843549999999993     36.764499999999984     38.799899999999994
