88

C      39.611136500000001     38.156829999999999     34.939849999999993
C      38.967306500000014     37.371490000000009     33.913290000000003
C      43.853136500000012     40.178849999999997     33.976170000000003
C      42.909136500000010     40.200410000000005     35.170149999999992
C      40.890336500000011     39.027699999999996     35.749769999999991
C      41.221436500000003     37.844130000000007     32.507420000000003
C      43.399236500000001     39.262400000000000     32.944789999999998
C      41.921736500000009     37.463750000000005     31.260389999999994
C      41.883436500000009     39.284070000000000     34.685200000000002
C      42.107336500000002     38.774810000000002     33.211230000000000
C      39.945336500000010     38.289139999999989     36.316649999999996
C      37.944126500000010     36.277648999999997     31.556199999999997
C      39.771536500000003     37.484940000000009     32.664469999999994
C      37.756476500000012     36.444873999999999     34.057150000000000
C      45.325236500000010     40.010939999999991     34.305320000000002
C      39.337536500000006     39.283540000000002     37.398949999999999
C      39.348346500000012     36.764502000000007     31.499910000000000
C      38.090296500000008     39.553219999999996     37.631049999999995
C      40.557736500000011     36.802735999999996     36.544440000000002
C      44.570636500000013     41.441180000000003     33.736590000000000
C      37.281336500000009     35.888260000000017     32.832300000000004
C      34.509956500000008     36.854113999999996     38.429450000000003
C      32.217486500000007     39.369389999999996     41.695749999999997
C      37.014006500000008     36.336691999999999     35.272369999999995
C      31.506156500000003     41.642790000000005     43.314349999999990
C      33.289766500000006     39.026620000000008     40.633249999999990
C      31.780436500000008     41.948509999999999     41.943150000000003
C      35.826946500000012     36.437167000000002     35.864159999999991
C      32.631726500000006     34.060260000000000     44.419150000000002
C      35.337946500000008     36.296517000000009     37.378149999999991
C      32.137896500000004     40.654269999999997     42.383450000000003
C      33.109096500000007     37.360889999999998     38.490549999999992
C      32.797796500000011     38.261809999999997     39.449249999999992
C      33.213636500000007     38.311610000000002     41.877349999999993
C      34.831166500000009     39.152850000000001     40.776050000000005
C      35.303626500000007     34.667960000000008     39.591050000000003
C      35.728636500000007     36.000581299999993     38.678850000000004
C      32.149436500000007     35.176559999999995     43.525449999999992
C      32.577796500000005     36.650918000000004     43.565949999999994
C      33.952696500000009     37.310180000000003     42.792849999999994
C      35.439156500000010     37.024969999999996     34.770609999999998
C      36.261116500000007     33.548460000000006     39.906349999999989
C      37.123126500000012     36.399663000000004     39.141750000000002
C      32.030656500000006     36.826119000000006     37.287649999999999
C      36.370406500000009     34.685660000000013     40.807649999999995
C      37.510516500000001     35.518060000000006     40.645849999999996
C      30.865056500000001     42.941209999999998     41.329349999999998
H      42.811036500000007     40.855099999999993     35.965109999999996
H      43.806836500000010     39.073310000000006     31.935279999999999
H      37.263076500000011     35.419460000000015     30.832970000000003
H      46.020336499999999     40.495620000000002     34.972430000000003
H      45.860536500000002     39.693269999999998     33.441859999999998
H      39.803436500000011     39.281160000000000     38.413049999999998
H      39.823336500000003     36.531417000000005     30.685279999999999
H      40.991536500000009     36.769537999999997     37.479949999999995
H      39.671836500000005     36.015784900000000     36.492689999999996
H      41.429836500000008     36.644035000000002     35.867570000000001
H      44.309836500000010     42.143400000000000     34.838419999999999
H      44.011736499999998     41.609650000000002     32.720559999999999
H      36.370506500000012     35.404560000000004     32.814030000000002
H      37.604996500000006     35.510959999999997     35.843079999999993
H      30.608526500000011     41.745800000000003     43.687450000000005
H      31.681886500000005     38.535129999999995     39.463049999999996
H      35.170206500000013     40.179540000000003     40.207050000000002
H      35.336046500000009     39.151939999999996     41.857049999999994
H      34.421676500000011     34.822260000000000     40.300549999999994
H      31.012826500000003     35.000760000000000     43.503650000000000
H      32.622526500000006     34.852859999999993     42.520949999999992
H      31.500366500000005     36.939470000000000     43.276449999999997
H      32.473486500000007     37.104889999999997     44.526849999999996
H      34.857846500000008     37.555819999999997     43.320650000000001
H      34.582416500000008     36.430575000000005     42.266749999999995
H      37.426946500000007     37.471069999999997     39.259549999999997
H      37.971866500000012     36.223098000000007     38.292650000000002
H      32.343896500000007     37.257990000000007     36.464589999999994
H      30.795766500000006     36.936050000000009     37.422850000000004
H      32.235096500000004     35.893860000000004     36.893449999999994
H      35.813116500000007     34.969759999999994     41.613549999999989
H      35.328936500000012     38.230860000000007     40.105950000000000
H      37.795736500000011     36.348917000000000     41.382249999999992
H      38.224386500000008     34.826459999999997     40.385949999999994
H      32.831606500000007     33.038560000000004     44.007249999999999
O      37.135696500000009     39.244790000000009     38.223450000000000
O      42.554736500000011     37.147490000000005     30.371450000000003
O      34.886246500000006     37.667590000000004     33.795160000000003
O      35.977546500000010     32.372460000000004     40.178950000000000
O      32.348826500000001     34.166060000000002     45.628549999999997
O      29.979663500000001     43.627539999999996     41.268749999999997
