5

C      38.525879999999994     38.012999999999991     37.907149999999987
H      37.374629999999996     38.333799999999997     36.449449999999999
H      37.628960000000006     38.027600000000007     39.550550000000001
O      38.625370000000004     37.544700000000006     39.057249999999996
O      38.335860000000004     38.455299999999994     36.769250000000000
