5

C      37.898049999999998     38.187300000000008     37.910099999999993
H      37.884050000000002     38.801699999999997     37.149299999999997
H      38.851849999999999     37.990500000000011     38.551399999999994
H      37.148150000000001     38.348200000000006     38.850700000000003
H      38.008250000000004     37.198300000000003     37.476900000000001
