51

C      37.496049999999997     34.746454999999997     41.093849999999996
C      38.948049999999995     35.172565000000006     40.798150000000007
C      36.537250000000000     39.918614999999996     35.204550000000005
C      37.432649999999995     40.118815000000005     36.340450000000004
C      36.528750000000002     35.384515000000000     40.379150000000003
C      39.085149999999999     36.070644999999999     39.593950000000007
C      35.477850000000004     38.845615000000002     35.372550000000004
C      37.259649999999993     39.294615000000000     37.801050000000004
C      35.799750000000003     37.664775000000006     39.068650000000005
C      37.955050000000000     37.801515000000002     37.808350000000004
C      36.658050000000003     36.612895000000002     39.537950000000002
C      37.994950000000003     36.800595000000008     39.015750000000004
C      35.356250000000003     38.124815000000005     36.636949999999999
C      36.212850000000003     38.351214999999996     37.866550000000004
C      37.199050000000000     34.165435000000002     42.504349999999995
C      38.322249999999997     33.878474999999995     43.301649999999995
C      39.670149999999992     34.102245000000003     42.891750000000002
C      40.000450000000001     35.039375000000000     41.796450000000000
C      36.699950000000001     40.553215000000002     33.906950000000002
C      37.439049999999995     41.796814999999995     33.710250000000002
C      38.173450000000003     41.921715000000006     35.049750000000003
C      38.377549999999999     41.120714999999997     36.180950000000003
C      35.094350000000006     35.073105000000005     40.965250000000005
C      34.822249999999997     33.939955000000005     41.807150000000007
C      35.891850000000005     33.701855000000002     42.787149999999997
C      41.418750000000003     37.031704999999995     41.363450000000000
C      41.344750000000005     35.737625000000001     41.595050000000008
C      35.891549999999995     40.100814999999997     32.638850000000005
C      37.895449999999997     40.270015000000001     39.125450000000001
H      38.737049999999996     40.787614999999995     38.631550000000004
H      39.873549999999994     36.527985000000008     38.923550000000006
H      34.672849999999997     37.546614999999996     39.167349999999999
H      38.333950000000002     37.264925000000005     36.805150000000005
H      38.295050000000003     33.236094999999999     44.204649999999994
H      40.566749999999999     33.943585000000006     43.449850000000005
H      37.480050000000006     42.267814999999999     32.638750000000002
H      38.771649999999994     42.932114999999996     35.052050000000001
H      39.051450000000003     41.240015000000000     36.916550000000001
H      34.998549999999994     35.958625000000005     41.709750000000000
H      34.283050000000003     35.204094999999995     40.299350000000004
H      35.135549999999995     33.067885000000004     40.866750000000003
H      33.673450000000003     33.453125000000000     41.813350000000000
H      35.525549999999996     33.560905000000005     43.826850000000007
H      42.326549999999997     35.205365000000008     41.749350000000000
H      36.177049999999994     39.054115000000003     32.453850000000003
H      34.716049999999996     40.403715000000005     32.845250000000007
H      36.113950000000003     40.731615000000005     31.795350000000006
H      38.383449999999996     39.504214999999995     39.922450000000005
H      37.239249999999998     41.144215000000003     39.565250000000006
O      41.482349999999997     38.071114999999999     40.971550000000001
O      34.334750000000000     38.737715000000001     35.999650000000003
