80

C      32.544249999999998     38.750799999999991     37.606134999999995
C      31.332050000000002     39.433599999999998     37.042634999999997
C      34.982949999999995     39.479900000000001     33.134535000000000
C      33.841550000000005     40.331799999999994     32.908534999999993
C      33.760949999999994     38.558700000000002     36.791035000000001
C      31.362850000000002     40.124099999999999     35.697035000000000
C      34.924550000000004     39.054900000000004     34.472835000000003
C      32.637550000000005     40.640899999999995     33.705334999999998
C      33.805850000000000     39.171099999999996     35.530835000000003
C      32.572549999999993     39.886399999999995     34.907335000000003
C      32.525150000000004     38.860999999999997     39.051134999999995
C      31.357849999999999     38.973700000000001     40.017234999999992
C      30.062950000000001     39.040999999999997     39.363935000000005
C      30.187150000000003     39.454599999999999     37.951934999999999
C      35.955949999999994     39.220999999999997     32.139535000000002
C      35.918250000000000     39.967499999999994     30.780335000000001
C      34.724550000000001     40.772499999999994     30.597335000000001
C      33.606050000000003     40.697899999999990     31.513235000000002
C      33.817350000000005     39.189399999999999     39.732235000000003
C      33.928550000000001     39.324299999999994     41.125035000000004
C      32.843949999999992     38.958900000000000     42.007435000000001
C      31.618350000000000     38.704000000000001     41.329734999999999
C      37.370950000000001     38.617300000000000     32.401135000000004
C      33.148349999999994     38.922199999999997     43.414834999999997
C      41.905350000000006     38.236800000000002     41.926135000000002
C      41.852650000000004     37.402200000000001     40.683635000000002
C      38.497750000000003     37.124299999999998     41.738734999999998
C      37.502149999999993     36.320200000000000     44.472034999999998
C      40.665749999999989     38.829500000000003     42.589034999999996
C      40.603549999999998     37.588200000000001     39.966734999999993
C      35.277749999999997     37.480199999999996     43.968734999999995
C      37.388350000000003     35.536600000000000     43.208534999999998
C      39.371649999999988     38.044699999999999     42.242235000000001
C      39.494850000000007     37.651599999999995     40.777634999999997
C      43.291850000000004     38.520099999999999     42.359735000000001
C      44.406549999999996     38.213400000000000     41.379034999999995
C      44.264949999999999     37.186999999999998     40.324134999999998
C      42.970450000000000     36.694699999999997     39.903435000000002
C      37.609649999999995     35.938499999999991     41.837735000000002
C      38.690049999999999     36.012500000000003     45.234135000000002
C      37.510449999999999     35.185600000000001     45.372034999999997
C      36.518149999999999     37.664600000000000     44.395735000000002
C      43.386049999999997     38.708499999999994     43.841635000000004
C      44.634149999999998     38.990800000000000     44.365135000000002
C      45.773249999999997     38.905699999999996     43.461034999999995
C      45.596350000000008     38.709899999999998     41.989534999999997
C      40.927550000000004     39.466500000000003     43.892434999999999
C      42.081750000000007     39.044199999999989     44.582834999999989
C      40.239750000000001     37.215800000000002     38.467734999999998
H      34.688650000000003     38.080900000000000     37.122734999999999
H      35.819550000000000     38.744700000000002     35.064835000000002
H      31.698650000000001     41.238299999999995     33.483834999999999
H      29.087949999999999     39.065100000000001     39.857235000000003
H      29.167149999999999     39.940199999999990     37.697735000000002
H      36.528849999999998     40.062600000000003     29.964435000000002
H      34.390550000000005     41.421599999999998     29.683765000000001
H      32.639749999999999     41.228099999999998     31.521635000000000
H      34.753050000000002     39.201699999999995     39.220734999999991
H      34.954350000000005     39.536499999999997     41.430334999999999
H      30.534150000000004     38.656399999999998     41.737334999999995
H      32.203749999999999     39.101399999999998     44.272034999999995
H      33.858550000000001     39.720999999999989     43.357434999999995
H      37.084050000000005     34.578400000000002     42.958235000000002
H      44.952050000000007     36.498199999999997     39.723334999999999
H      43.013449999999992     35.530900000000003     39.267834999999991
H      37.644449999999992     35.100800000000000     41.099634999999999
H      39.593250000000005     35.832799999999999     44.816135000000003
H      36.698950000000004     35.225400000000000     46.316234999999999
H      36.901150000000001     38.788199999999996     44.508434999999999
H      44.867149999999995     38.906499999999994     45.394235000000002
H      46.912050000000001     39.148299999999999     43.748335000000004
H      46.583849999999998     38.805099999999996     41.522335000000005
H      40.159950000000002     39.962600000000002     44.256234999999997
H      42.405149999999999     39.180399999999999     45.593934999999995
H      41.161549999999998     37.096100000000000     37.643934999999999
H      39.949149999999989     36.090499999999999     38.236735000000003
H      39.276450000000004     37.763199999999998     38.121334999999995
O      38.514649999999989     38.741300000000003     32.430334999999999
O      30.765850000000000     41.125299999999996     35.583835000000001
O      34.139650000000003     37.590400000000002     43.503734999999992
