6

C      38.435899999999990     37.920499999999997     37.995099999999994
C      37.228499999999997     38.209299999999999     37.341799999999992
H      39.033900000000003     37.331699999999998     39.659099999999995
H      36.611400000000003     38.433800000000005     38.088399999999993
H      37.147199999999998     38.668300000000002     36.340900000000005
O      39.388599999999997     37.463600000000000     38.688699999999997
