66

C      37.434074999999993     33.255599999999987     45.379349999999988
C      38.880054999999999     37.620999999999995     41.951650000000001
C      38.056825000000003     40.261799999999994     31.724749999999993
C      38.260935000000003     36.365899999999996     41.370850000000004
C      38.982655000000008     40.706999999999994     32.855350000000001
C      39.585854999999995     38.108000000000004     40.827150000000003
C      37.494114999999994     38.901399999999995     31.875249999999998
C      37.804694999999995     36.087999999999994     39.992649999999998
C      39.544955000000002     39.998899999999992     34.140749999999997
C      40.486755000000002     38.618600000000001     38.435850000000002
C      37.108085000000003     35.341499999999996     35.568950000000001
C      37.514485000000008     35.505199999999988     37.027949999999997
C      39.903255000000001     38.482600000000005     37.136350000000000
C      39.523054999999999     37.865099999999998     39.398849999999996
C      37.857405000000000     38.126900000000006     33.049450000000000
C      37.460645000000000     36.508899999999997     34.782849999999996
C      38.668244999999999     36.833299999999994     38.964349999999996
C      38.708334999999991     38.545799999999986     34.170549999999992
C      38.361985000000004     36.564800000000005     37.559249999999992
C      38.951355000000007     37.567699999999988     36.543549999999996
C      38.552505000000011     37.523200000000003     35.162350000000004
C      36.950595000000007     34.994299999999996     39.472449999999995
C      37.048685000000006     34.565799999999996     38.099949999999993
C      39.848555000000005     38.558899999999994     42.168949999999995
C      37.743835000000004     35.369799999999998     43.740549999999999
C      37.878105000000005     35.109899999999996     42.145550000000000
C      36.940075000000007     34.134199999999993     41.415250000000000
C      36.112105000000000     34.150599999999997     40.311549999999997
C      37.535505000000001     41.209999999999994     30.802949999999996
C      37.967224999999999     42.586900000000000     30.614850000000001
C      39.015855000000002     42.939499999999995     31.591449999999998
C      39.508854999999997     41.929900000000004     32.576449999999994
C      36.107894999999999     33.495699999999999     37.543549999999996
C      36.296655000000001     38.188299999999998     31.226350000000000
C      39.049055000000010     34.550399999999996     42.965350000000001
C      38.959454999999991     40.889399999999995     35.389749999999992
C      36.689525000000003     34.530599999999993     44.460650000000001
C      36.202475000000007     34.113900000000001     45.717349999999996
C      35.376085000000003     35.005200000000002     44.327349999999996
H      40.094754999999992     34.773099999999999     43.429249999999996
H      40.727455000000006     40.118099999999998     34.306749999999994
H      41.286554999999993     39.349599999999995     38.655249999999995
H      36.643585000000002     34.368899999999996     35.120149999999995
H      40.560755000000000     39.347899999999996     36.508649999999996
H      36.237215000000006     36.340599999999995     33.040849999999992
H      40.645655000000005     39.388800000000003     42.449050000000000
H      36.331605000000010     33.317499999999995     41.940650000000005
H      35.310254999999998     33.420100000000005     39.949849999999984
H      36.799745000000001     40.938999999999993     30.298149999999996
H      37.476475000000008     43.309600000000003     29.939150000000001
H      39.757055000000008     43.836100000000002     31.684149999999995
H      40.283155000000008     42.179199999999994     33.254950000000001
H      36.209325000000007     37.090799999999987     30.744649999999996
H      36.159925000000001     38.761299999999991     30.163849999999996
H      35.394064999999998     38.416899999999998     31.727049999999998
H      38.047245000000004     35.996700000000004     44.464449999999999
H      38.970654999999994     33.472800000000007     43.136250000000004
H      36.804135000000002     32.477400000000003     37.611449999999998
H      38.242154999999997     40.293400000000005     36.077249999999999
H      39.572955000000007     41.854799999999997     35.662250000000000
H      38.343405000000004     41.578000000000003     34.745549999999994
H      35.641445000000004     33.090800000000002     46.060850000000002
N      36.988155000000006     37.048799999999986     33.447150000000001
O      37.490135000000009     32.163899999999998     45.564549999999997
O      34.713445000000007     35.554499999999990     43.527150000000006
O      34.947245000000009     33.423900000000003     37.711950000000002
