46

C      35.755099999999999     34.470999999999989     40.075149999999994
C      38.569500000000005     38.816599999999994     37.710050000000003
C      39.689300000000010     39.014600000000002     38.665750000000003
C      40.804700000000004     41.771699999999996     35.042750000000005
C      38.416300000000007     39.298499999999990     36.337550000000000
C      40.797800000000002     39.760899999999992     38.336449999999999
C      39.597499999999997     40.942099999999996     34.873449999999998
C      41.346800000000009     41.691100000000006     36.417549999999999
C      39.549700000000001     40.188699999999997     36.068750000000001
C      40.542900000000003     40.620599999999982     37.065150000000003
C      37.458700000000000     37.909999999999997     38.310049999999997
C      37.386800000000001     37.313800000000001     39.648150000000001
C      38.690900000000006     37.572900000000004     40.304249999999996
C      39.790799999999997     38.417199999999994     40.032849999999996
C      36.275099999999995     37.628699999999995     37.492650000000005
C      34.080100000000002     36.976699999999994     38.227449999999997
C      35.412299999999995     37.100399999999993     38.558250000000001
C      36.024699999999996     36.822599999999994     39.866350000000004
C      37.484900000000003     38.533400000000000     35.413050000000005
C      35.855899999999998     38.297399999999996     36.215150000000001
C      41.832600000000006     40.104899999999986     39.357350000000004
C      41.924900000000001     39.455399999999997     40.739349999999995
C      40.184300000000000     39.401299999999992     41.079150000000006
C      40.105400000000010     36.908399999999986     40.489349999999995
C      35.383900000000004     35.831599999999995     40.921150000000004
H      35.592000000000006     34.532799999999995     38.827850000000005
H      35.145100000000006     33.524999999999991     40.371450000000003
H      36.771700000000003     33.914900000000003     40.208849999999998
H      38.962300000000006     40.797299999999993     33.894450000000006
H      42.167599999999993     42.426699999999983     36.868150000000007
H      41.273200000000010     42.475000000000009     34.273350000000001
H      37.734899999999996     37.372699999999995     35.595850000000006
H      37.128899999999994     38.879099999999994     34.522449999999999
H      35.382200000000005     39.348999999999990     36.476250000000000
H      34.924500000000002     38.232399999999998     35.569150000000000
H      41.885399999999997     41.183400000000006     39.512750000000004
H      42.877000000000002     40.179599999999994     38.756850000000007
H      42.138200000000005     38.251400000000004     40.845949999999995
H      42.525599999999997     40.328999999999994     41.356349999999999
H      40.336800000000004     39.186699999999988     42.105549999999994
H      39.835799999999992     40.422300000000007     40.750250000000001
H      41.084999999999994     37.191599999999994     40.929349999999999
H      40.104900000000008     36.213700000000003     39.600550000000005
H      34.351699999999994     35.965999999999994     41.137249999999995
H      36.043699999999994     35.743799999999993     41.846850000000003
O      33.122999999999998     36.771199999999993     37.716149999999999
