8

C      38.206050000000005     37.787350000000004     37.228899999999996
C      38.280050000000003     37.907550000000001     38.697199999999995
H      38.856349999999992     36.981850000000009     36.870300000000000
H      38.550049999999999     38.611649999999997     36.872000000000000
H      37.143650000000008     37.929649999999995     36.766900000000000
H      37.177350000000004     37.870449999999991     39.134899999999995
H      38.605350000000001     39.018149999999991     38.793199999999999
H      38.610150000000004     37.156450000000007     39.233100000000000
