12

C      38.742249999999999     36.748044999999991     38.638349999999988
C      37.876350000000002     38.026574999999994     38.522149999999996
C      38.253650000000007     39.237744999999990     39.124850000000009
C      37.286450000000002     38.268024999999994     37.258650000000003
H      39.518649999999994     36.535184999999998     39.382149999999996
H      38.290350000000004     35.823554999999999     38.193650000000005
H      39.717549999999996     36.899664999999999     38.063749999999999
H      36.921650000000007     37.511774999999986     39.084249999999997
H      36.282450000000004     38.924504999999996     37.404949999999999
H      37.948650000000001     38.709644999999995     36.366450000000000
H      37.312450000000005     37.257724999999994     36.673950000000005
O      38.662450000000007     40.176445000000001     39.633550000000000
