113

C      43.156549999999989     36.262544999999989     37.851699999999994
C      44.327410000000000     37.502124999999999     38.820200000000000
C      44.000540000000001     38.097234999999998     35.351200000000006
C      44.889629999999990     37.254294999999992     36.368499999999997
C      42.095676999999995     36.935764999999996     37.225000000000009
C      45.408369999999998     37.049334999999985     39.689800000000005
C      42.646333999999996     38.127964999999989     35.337100000000007
C      45.620129999999996     35.464814999999994     37.972200000000001
C      44.580939999999991     36.519384999999986     37.560499999999990
C      46.084989999999991     35.948754999999998     39.122500000000002
C      41.569379999999995     36.073364999999988     38.120100000000008
C      41.506180000000008     40.020924999999991     38.481999999999999
C      41.511479999999985     41.065724999999993     37.356499999999997
C      38.609780000000008     39.330024999999999     39.288100000000000
C      44.461529999999996     39.148424999999996     34.435100000000006
C      45.876219999999996     39.502724999999998     34.377200000000002
C      46.641790000000000     38.787624999999998     35.360900000000001
C      46.288379999999989     37.549664999999997     36.028500000000008
C      40.553179999999998     33.643144999999997     40.229999999999990
C      40.344179999999994     35.767424999999996     38.929800000000000
C      40.477480000000007     40.825924999999991     38.207899999999995
C      38.904579999999989     40.483524999999993     38.494399999999999
C      40.552579999999985     34.945004999999995     40.589200000000005
C      39.786880000000004     34.527204999999988     39.357999999999990
C      38.966479999999997     34.004864999999995     37.995500000000007
C      37.560180000000003     33.255644999999994     37.826800000000006
C      40.696179999999991     32.120654999999985     39.946500000000000
C      47.208369999999995     35.503704999999997     39.888899999999992
C      42.157305999999991     31.461614999999998     40.313400000000001
C      40.873680000000000     42.164224999999995     38.162700000000001
C      46.107119999999995     40.550424999999997     33.131299999999996
C      41.181580000000004     40.894224999999992     35.811499999999995
C      43.316069999999989     38.667424999999994     39.046299999999988
C      38.188979999999994     39.141624999999991     41.645700000000005
C      39.129279999999994     38.630724999999998     40.521500000000003
C      32.691980000000001     40.672124999999994     37.273700000000005
C      31.185679999999991     35.656044999999999     42.154499999999999
C      33.676980000000000     39.780524999999990     37.976500000000001
C      32.520780000000002     35.672734999999996     41.545600000000007
C      31.268879999999992     40.342124999999989     37.640000000000001
C      30.236080000000005     36.311574999999998     41.279100000000000
C      33.537579999999998     38.449124999999995     38.486199999999997
C      32.934879999999993     36.308844999999998     40.384000000000000
C      29.492479999999990     38.936724999999996     38.724900000000005
C      29.181979999999989     37.944544999999991     39.587800000000001
C      30.959180000000003     39.143024999999994     38.373300000000000
C      30.267380000000010     37.070094999999995     40.158600000000007
C      32.019279999999988     38.436424999999993     39.044100000000000
C      31.826079999999994     37.167894999999994     39.811000000000007
C      34.607479999999988     37.547464999999995     38.829999999999998
C      33.508079999999993     41.845824999999998     36.691699999999997
C      34.935279999999992     41.579924999999996     36.903700000000001
C      35.061179999999986     40.217624999999998     37.622500000000002
C      37.645079999999993     39.698124999999990     38.314099999999996
C      36.165679999999995     39.392224999999996     38.024500000000003
C      35.860579999999992     38.206624999999988     38.933499999999995
C      30.450479999999995     41.540225000000000     37.078999999999994
C      31.336180000000006     42.471824999999988     36.105300000000000
C      32.641179999999984     43.063624999999995     36.460300000000004
C      30.987579999999994     43.892124999999993     35.895600000000002
C      31.312779999999997     44.574124999999988     34.496899999999997
C      31.919479999999997     38.936224999999993     40.434300000000007
H      45.798009999999998     37.578505000000000     40.452699999999993
H      46.152659999999997     34.854624999999999     37.307600000000008
H      43.922939999999997     39.424324999999989     33.590000000000003
H      47.567259999999997     39.330724999999987     35.237099999999998
H      47.271139999999995     37.018784999999994     36.351799999999997
H      39.639280000000007     36.588974999999991     38.951499999999996
H      40.446680000000001     35.898364999999991     41.033900000000003
H      38.740880000000004     34.720714999999998     37.284000000000006
H      39.661979999999993     33.155154999999986     37.425999999999988
H      36.933779999999992     33.617704999999994     38.601399999999998
H      37.921779999999998     32.208094999999993     37.808499999999995
H      37.201279999999997     33.567044999999993     36.683799999999991
H      40.397779999999997     31.913844999999998     38.885000000000005
H      39.858080000000001     31.518525000000000     40.207899999999995
H      47.754119999999993     34.574804999999998     39.501999999999995
H      47.621129999999987     35.799994999999988     40.641900000000007
H      41.909880000000001     31.721635000000003     41.510999999999996
H      43.193049999999992     31.881834999999992     40.026100000000000
H      42.000093199999995     30.419974999999997     40.466999999999999
H      39.870279999999987     42.615624999999987     38.382300000000001
H      41.996376800000000     41.408524999999997     35.055300000000003
H      47.031559999999999     40.291424999999997     32.381900000000002
H      45.498169999999995     40.170024999999995     32.389800000000008
H      46.037720000000000     41.639224999999989     33.071300000000008
H      40.357379999999992     39.704724999999996     36.013500000000008
H      40.293979999999998     41.625924999999995     35.682000000000002
H      39.012779999999999     37.569664999999993     40.524299999999997
H      39.932679999999998     39.509924999999996     40.791200000000003
H      35.305979999999991     36.421974999999989     40.526200000000003
H      37.113680000000002     39.660324999999993     43.618099999999998
H      30.859780000000004     35.175044999999997     43.004700000000000
H      33.387779999999992     35.301904999999998     42.187300000000008
H      29.422579999999993     36.227834999999992     41.960300000000004
H      28.763479999999998     39.546024999999986     38.246099999999998
H      28.245880000000007     37.867144999999994     39.752099999999999
H      35.759979999999999     42.181624999999997     36.870699999999999
H      36.637779999999999     37.658704999999998     39.300399999999996
H      30.068879999999989     42.151624999999989     38.022399999999990
H      29.531379999999995     41.043124999999989     36.911799999999999
H      33.256079999999997     43.966424999999994     36.293099999999995
H      31.340679999999985     41.730624999999996     35.216300000000004
H      30.616180000000007     44.535724999999985     36.696100000000001
H      31.001580000000004     45.580024999999999     34.371300000000005
H      30.753380000000000     43.934424999999990     33.730599999999995
H      32.326380000000007     44.374924999999998     34.218599999999995
H      30.758679999999995     39.257024999999992     40.536500000000004
H      32.584479999999999     38.994324999999996     41.228799999999993
N      37.329079999999990     39.420124999999992     42.436700000000002
N      34.301180000000002     36.479694999999992     39.921999999999997
O      41.713479999999997     38.165524999999995     36.085800000000006
O      42.569274999999998     39.479724999999995     39.533299999999997
