9

C      37.709549999999993     38.950449999999996     37.054899999999996
C      38.685449999999996     37.223550000000003     38.477800000000002
C      37.454549999999998     38.252049999999997     38.234600000000000
H      36.913349999999994     39.573650000000001     36.553000000000004
H      38.703650000000003     38.892949999999999     36.654800000000002
H      38.225749999999998     36.426349999999999     37.991500000000002
H      38.650950000000002     36.721750000000000     39.446999999999996
H      39.613350000000004     37.806550000000001     37.970600000000005
O      36.386649999999996     38.167349999999992     38.745300000000000
