92

C      38.966649999999987     39.843869999999988     43.233864999999994
C      39.440949999999994     37.512709999999998     44.486595000000001
C      37.530249999999995     37.127725999999996     40.252464999999987
C      37.716449999999995     35.798049999999996     39.621165000000005
C      38.625049999999995     38.493400000000001     43.518994999999997
C      39.202549999999988     36.118649999999995     44.165714999999999
C      38.484349999999999     34.529750000000000     42.514567000000000
C      37.666449999999998     37.471460000000000     42.770394000000003
C      38.317650000000000     36.012150000000013     43.102548999999989
C      39.432749999999992     41.290599999999998     43.230415000000001
C      38.942450000000001     45.708219999999997     43.235965000000000
C      40.305850000000000     38.412719999999993     45.401744999999998
C      40.975049999999989     38.933149999999991     46.189884999999997
C      38.051549999999992     37.109485999999997     38.799964999999986
C      39.046949999999995     33.744749999999989     39.895464999999994
C      38.158349999999999     33.984149999999985     41.089464999999997
C      37.944649999999996     34.449449999999999     39.727865000000008
C      37.192450000000001     38.303959999999989     43.955384999999993
C      38.263249999999999     40.886550000000000     42.488399999999992
C      39.705849999999998     42.693359999999998     43.601694999999992
C      36.792649999999995     37.587100000000000     45.163525000000000
C      40.282249999999991     43.841549999999998     42.805366999999997
C      36.178649999999998     38.449149999999996     46.485745000000001
C      37.191249999999997     34.984650000000002     43.441884999999999
C      38.426049999999996     40.465460000000000     32.871665000000000
C      35.978649999999995     35.603750000000012     32.398464999999995
C      36.078350000000000     36.370072000000000     31.110864999999990
C      36.563049999999997     38.230080000000001     32.663665000000002
C      36.222949999999997     38.282119999999992     35.116664999999998
C      36.255049999999997     35.957649999999980     33.822565000000004
C      36.198549999999997     38.936039999999998     30.244165000000002
C      36.911649999999995     38.793540000000000     33.938564999999997
C      38.150149999999989     37.935150000000000     31.133064999999995
C      36.103349999999999     37.531639999999996     33.903164999999987
C      36.709449999999997     37.769269999999999     31.283964999999995
C      35.590149999999994     34.285149999999994     31.820564999999995
C      35.214849999999998     34.294050000000013     30.329165000000003
C      35.540050000000001     30.396750000000004     29.651065000000003
C      35.687249999999999     35.607749999999989     29.936165000000010
C      39.466449999999995     37.457389999999997     31.528664999999990
C      37.581550000000000     35.824349999999988     36.682364999999990
C      37.201249999999995     36.947651999999998     37.436264999999992
C      36.400849999999998     38.086140000000000     36.708664999999996
C      35.161850000000001     31.761350000000007     31.659565000000001
C      34.945049999999988     31.774150000000006     30.248365000000000
C      34.618949999999998     33.099049999999991     29.740065000000016
C      37.167249999999989     35.740549999999999     35.327665000000010
C      38.157249999999998     39.587100000000000     34.191564999999997
C      35.626549999999995     37.027544999999996     37.647265000000004
H      37.043749999999996     39.095950000000002     29.463265000000000
H      37.648249999999997     40.380299999999998     32.007265000000004
H      39.757950000000001     35.173950000000005     44.558484999999997
H      39.242549999999994     33.914550000000006     43.051876999999998
H      41.404350000000001     39.906729999999996     46.649394999999998
H      39.271650000000001     37.181588999999995     38.701864999999998
H      40.077549999999988     33.435749999999992     40.251764999999999
H      36.216049999999996     38.875429999999994     43.497154999999999
H      37.528050000000000     41.359949999999998     41.824064999999997
H      39.729450000000000     42.621519999999997     44.643754999999999
H      37.515049999999995     36.742986999999999     45.316124999999992
H      36.096449999999997     36.884520000000002     44.685814999999998
H      41.090249999999990     44.327349999999996     43.386415000000000
H      40.779849999999989     43.795450000000002     41.666064999999996
H      37.049650000000000     39.061459999999997     46.476565000000001
H      36.012850000000000     37.773809999999997     47.520434999999999
H      35.275449999999999     38.952399999999997     46.017654999999998
H      36.259949999999996     35.667849999999994     43.056092000000000
H      37.146549999999998     34.579349999999984     44.431964999999991
H      39.425950000000000     40.305790000000002     32.537565000000001
H      38.365449999999996     41.691299999999998     33.075764999999997
H      36.065950000000001     30.766650000000006     28.773364999999998
H      36.371849999999995     39.910939999999997     30.381764999999987
H      38.400749999999995     37.941539999999996     30.084764999999990
H      36.248449999999998     29.810649999999995     30.065864999999995
H      35.651350000000001     35.885849999999991     28.915264999999991
H      38.418650000000000     35.234249999999982     37.025365000000008
H      36.562750000000001     38.973700000000001     37.294664999999995
H      35.427749999999996     30.842349999999982     31.998264999999989
H      35.084549999999993     29.544650000000004     29.068264999999997
H      34.595649999999999     32.950949999999992     28.479565000000001
H      36.457649999999994     32.825650000000003     33.150164999999994
H      35.238549999999996     36.268979500000000     37.062365000000000
H      35.249549999999999     37.644280000000002     38.383564999999997
H      36.624949999999998     38.798769999999998     41.025465000000011
H      35.195149999999998     38.708939999999998     29.741365000000002
N      36.801649999999988     37.775680000000001     41.329364999999996
N      35.630049999999997     32.956849999999982     32.262964999999994
O      39.302949999999996     45.020139999999998     42.294539600000000
O      38.670349999999992     46.455349999999996     44.193924999999993
O      37.098949999999995     34.859449999999995     34.438765000000004
O      39.004249999999999     39.466699999999996     35.007265000000004
O      40.261749999999999     36.717906999999997     31.146364999999996
