5

C      37.869149999999991     37.959849999999989     37.974399999999996
H      37.354750000000003     38.353849999999994     37.081290000000003
H      38.538750000000000     38.942850000000000     38.247050000000002
H      38.645249999999997     37.057150000000000     38.038950000000000
H      37.435449999999996     37.549849999999999     38.918709999999997
