38

C      35.917699999999996     42.129829999999991     40.576699999999995
C      37.838500000000003     38.205640000000002     38.360399999999998
C      37.353699999999996     39.554310000000001     37.840999999999994
C      38.062399999999997     40.582430000000002     40.553700000000006
C      38.362099999999998     37.929739999999995     39.665100000000002
C      36.663800000000009     40.612830000000002     38.541899999999998
C      39.122700000000002     39.848700000000001     41.408900000000003
C      38.335699999999996     39.151719999999997     40.494600000000005
C      37.035200000000003     41.328130000000002     40.065799999999996
C      37.867000000000004     37.055340000000001     37.391000000000005
C      37.711800000000004     37.133720000000004     35.905400000000000
C      37.396600000000007     38.582080000000005     35.489000000000004
C      36.998799999999996     39.769260000000003     36.375399999999999
C      38.371600000000001     35.705200000000005     37.749099999999999
C      37.993200000000009     34.569200000000002     35.689200000000000
C      38.399200000000000     34.477600000000002     37.051800000000000
C      37.725500000000004     35.868190000000006     35.135899999999999
C      38.714400000000005     35.507500000000000     39.179999999999993
C      38.761500000000005     36.588840000000005     40.156199999999991
C      36.777799999999999     38.760959999999997     34.150800000000004
C      35.902100000000004     39.835970000000003     33.835700000000003
C      35.720199999999998     41.054530000000000     34.520499999999998
C      36.279299999999999     40.833930000000002     35.853499999999997
C      40.448900000000009     39.866799999999998     42.211699999999993
H      38.859400000000001     33.323670000000000     37.457900000000002
H      37.548600000000008     35.875540000000001     34.060299999999998
H      39.064900000000009     34.497310000000006     39.311599999999999
H      38.971100000000000     36.268689999999999     41.314400000000006
H      36.836800000000004     37.968090000000004     33.322999999999993
H      35.522200000000005     39.510069999999999     32.765200000000000
H      35.305500000000009     42.041930000000001     34.073399999999992
H      36.339000000000006     41.805930000000004     36.430800000000005
H      38.083100000000009     33.896140000000003     35.001199999999997
H      40.891500000000008     38.915239999999997     42.184200000000004
H      41.004199999999997     40.796429999999994     42.027200000000001
H      39.871499999999997     39.750819999999997     43.234800000000000
O      34.995800000000003     42.676330000000000     40.883200000000002
O      36.989100000000008     41.814729999999997     38.483199999999997
