65

C      31.918749999999992     39.228599999999993     40.848399999999998
C      35.212450000000004     39.206499999999998     38.795500000000004
C      35.182450000000003     37.693600000000004     38.298100000000005
C      39.805350000000004     39.345700000000001     37.564900000000002
C      41.087249999999997     39.497299999999989     37.282399999999996
C      36.135750000000002     40.326899999999988     38.518799999999999
C      36.475850000000008     37.263100000000001     37.704900000000002
C      38.980549999999994     38.067300000000003     37.370600000000003
C      38.739249999999984     40.331499999999998     37.893000000000001
C      37.406249999999986     39.759900000000002     38.175699999999992
C      37.563550000000006     38.286099999999998     37.788499999999992
C      34.008749999999992     39.522900000000000     39.482300000000002
C      32.882049999999992     38.832799999999999     39.701799999999999
C      34.138750000000002     36.818700000000000     38.651600000000002
C      42.333449999999999     40.018500000000003     36.913000000000004
C      44.772549999999981     40.911499999999997     37.353599999999993
C      43.665749999999989     40.632599999999989     36.266800000000003
C      42.231549999999999     38.776499999999999     37.590599999999995
C      35.623949999999994     41.776899999999991     38.742000000000004
C      34.651550000000000     41.966200000000001     39.862300000000005
C      34.412149999999997     40.544499999999992     40.691099999999999
C      36.365549999999985     35.864599999999989     37.275600000000004
C      35.231350000000006     35.042100000000005     37.126700000000000
C      34.240949999999998     35.526100000000000     38.154400000000003
C      34.960049999999995     35.087199999999996     35.583900000000000
C      35.432350000000000     33.769700000000000     37.701599999999999
C      36.624549999999985     32.910600000000002     36.758200000000002
C      35.504449999999991     43.055199999999999     40.821899999999999
C      39.796750000000003     36.894300000000001     36.667499999999997
C      32.798850000000002     40.178699999999999     38.699900000000000
C      44.886750000000006     39.962100000000000     36.222799999999999
C      44.159750000000003     40.468699999999998     34.762799999999999
H      38.980050000000006     41.299899999999994     38.282600000000002
H      44.878349999999983     40.326899999999988     38.211999999999996
H      42.996549999999999     38.227699999999999     37.923300000000005
H      36.608750000000001     42.358499999999999     38.568000000000005
H      35.545649999999995     42.430099999999996     37.870899999999999
H      33.790249999999986     42.528199999999998     39.483899999999998
H      33.834450000000004     40.684200000000004     41.609999999999992
H      35.379149999999996     40.326499999999989     40.926500000000004
H      37.415649999999999     35.470399999999998     36.819800000000001
H      33.328950000000006     35.031099999999995     38.473599999999998
H      32.612949999999998     36.293199999999999     39.800699999999999
H      34.669149999999988     36.078699999999998     35.184400000000004
H      35.885950000000008     34.491000000000000     35.009000000000000
H      34.307249999999996     34.278700000000001     35.442500000000003
H      36.194249999999997     33.969499999999996     38.619399999999999
H      34.331649999999996     33.323300000000003     37.780700000000003
H      36.368949999999984     32.655400000000000     35.602000000000004
H      37.586650000000006     33.227699999999999     36.400900000000000
H      37.083250000000007     31.858599999999996     37.154400000000003
H      35.857650000000007     44.141400000000004     40.343200000000003
H      36.633549999999985     43.040999999999997     41.012699999999995
H      35.270849999999996     43.057600000000001     41.819899999999997
H      40.559549999999987     37.115799999999993     35.897100000000002
H      40.149249999999995     36.104500000000002     37.239800000000002
H      39.173649999999995     36.373300000000000     35.847500000000004
H      33.323849999999993     40.491799999999998     37.660299999999992
H      32.095849999999999     41.114999999999995     39.019500000000001
H      44.430349999999990     41.954899999999995     37.764400000000002
H      44.612250000000003     38.831299999999999     36.321800000000003
H      43.569050000000004     39.777699999999996     34.180100000000003
H      44.483550000000008     41.361299999999993     34.364600000000003
N      32.872049999999987     37.260300000000001     39.341700000000003
O      31.113249999999997     39.247499999999995     41.632700000000000
