99

C      40.096849999999989     42.080799999999996     39.357649999999992
C      40.641549999999995     43.104200000000006     38.292650000000009
C      36.858149999999995     40.689200000000000     35.583550000000002
C      37.565349999999995     41.744700000000002     34.802450000000007
C      39.127150000000000     41.089400000000005     38.806049999999999
C      40.327149999999989     43.102100000000000     36.881650000000008
C      37.375249999999994     40.627400000000002     36.974550000000008
C      38.923649999999995     42.294900000000005     35.117149999999995
C      38.685150000000007     41.088400000000000     37.357549999999989
C      39.412850000000006     42.077800000000003     36.445450000000008
C      40.335049999999995     42.085200000000000     40.669250000000005
C      41.602850000000004     42.746999999999993     41.064549999999997
C      42.241950000000003     43.694999999999993     40.142049999999998
C      41.844650000000001     43.847600000000000     38.760649999999998
C      35.472449999999995     40.204300000000003     35.212050000000005
C      34.746750000000006     40.811199999999999     34.140550000000005
C      35.551349999999999     41.688799999999993     33.323949999999996
C      36.927250000000001     41.873500000000000     33.519549999999995
C      38.328450000000004     40.324300000000001     41.208449999999999
C      39.640050000000002     41.108000000000004     41.518850000000000
C      40.413549999999987     41.529300000000006     42.734049999999996
C      41.494349999999997     42.514899999999997     42.572050000000004
C      38.059749999999994     39.282000000000004     42.004649999999998
C      38.185849999999988     40.289300000000004     39.689149999999998
C      36.990849999999995     39.709800000000001     39.193650000000005
C      36.337050000000005     39.763600000000004     37.890550000000005
C      34.804450000000003     39.251700000000000     36.176950000000005
C      35.139449999999997     39.126400000000004     37.552949999999996
C      41.240049999999997     44.026300000000006     35.887650000000008
C      42.323449999999994     44.945999999999998     36.456049999999991
C      42.673150000000007     44.499599999999994     37.832650000000001
C      34.986750000000001     37.740200000000002     35.707349999999991
C      34.935350000000000     37.354499999999994     34.137250000000009
C      43.428150000000002     44.989700000000006     35.377250000000004
C      43.329149999999998     44.611600000000003     40.862049999999996
C      35.977149999999995     34.945500000000003     38.074250000000006
C      35.159049999999993     33.901799999999994     38.285550000000001
C      35.626450000000006     37.515900000000002     41.484650000000002
C      36.659049999999993     35.954700000000003     39.279150000000001
C      34.534049999999993     32.448700000000002     35.881950000000003
C      35.676349999999999     36.662500000000001     40.267150000000001
C      34.606949999999998     33.410200000000003     39.618549999999999
C      36.095950000000002     35.334400000000002     40.491950000000003
C      35.021850000000001     34.185199999999995     40.726649999999992
C      36.620149999999995     35.216499999999996     36.808549999999997
C      34.943650000000005     33.857799999999997     35.765649999999994
C      36.225149999999999     34.725600000000000     35.672350000000009
C      34.642550000000000     33.145500000000006     37.139350000000007
C      38.884150000000005     35.611100000000000     38.061050000000009
C      38.018850000000000     36.021100000000004     36.783050000000003
C      33.908449999999995     34.845700000000001     35.287649999999999
C      32.438550000000006     31.036399999999997     34.919150000000002
C      34.347149999999999     33.767600000000002     41.960949999999997
C      33.830149999999996     31.807999999999996     34.719449999999995
C      36.455150000000003     37.680100000000003     42.637649999999994
H      39.036850000000001     43.269799999999996     34.484850000000009
H      33.830449999999999     40.595800000000004     33.986549999999994
H      35.220749999999995     42.171100000000003     32.370050000000006
H      37.427250000000001     42.445700000000002     32.867550000000008
H      40.396749999999997     40.685600000000001     43.629949999999994
H      42.500850000000000     42.677100000000003     43.063649999999996
H      36.850250000000003     39.116700000000002     40.031449999999992
H      33.627049999999997     39.588400000000000     36.183650000000000
H      34.815449999999998     38.707100000000004     38.503950000000003
H      40.671549999999996     44.477800000000002     34.987150000000000
H      41.769749999999988     43.178399999999996     35.367249999999999
H      41.682649999999995     45.879400000000004     36.403950000000009
H      43.748549999999994     44.234500000000004     37.799350000000004
H      35.930650000000000     37.587799999999994     36.378349999999998
H      34.128249999999994     37.493299999999998     36.253349999999998
H      34.524249999999995     38.386800000000001     33.660150000000002
H      35.978949999999998     37.369800000000005     33.807350000000000
H      34.495850000000004     36.727300000000000     33.312249999999999
H      44.508449999999996     44.708800000000004     35.775250000000000
H      43.425049999999999     45.920199999999994     34.803150000000002
H      43.499350000000007     44.088299999999997     34.767449999999997
H      42.639649999999989     45.212799999999994     41.737150000000000
H      43.401949999999999     45.460899999999995     40.046149999999997
H      35.026949999999999     38.395400000000002     41.142550000000000
H      34.655050000000003     36.798500000000004     39.783649999999994
H      36.718449999999990     35.033700000000003     34.727950000000007
H      38.371449999999996     37.639200000000002     39.256249999999994
H      38.547550000000001     34.602500000000006     38.297950000000000
H      37.902450000000002     37.049500000000002     36.699050000000000
H      38.874250000000004     35.624600000000001     36.195949999999996
H      32.195249999999994     30.763000000000002     33.925350000000009
H      31.491550000000000     31.244699999999998     35.708449999999999
H      33.537250000000000     32.961700000000000     41.887050000000002
H      34.080449999999999     32.526400000000002     39.746949999999998
H      34.282849999999996     34.138500000000001     43.053849999999997
H      32.542549999999999     30.079800000000006     35.354749999999996
H      34.553550000000001     31.302000000000000     34.315449999999998
H      39.986750000000001     35.637400000000000     38.116349999999997
H      44.213350000000005     44.111199999999997     41.262150000000005
H      33.546549999999996     32.438800000000001     33.747850000000000
N      38.135249999999999     36.492500000000000     39.154749999999993
O      37.891050000000007     38.394199999999998     42.811750000000004
O      33.104650000000007     35.309899999999999     34.709050000000005
O      35.683949999999996     37.014700000000005     43.273049999999998
