7

C      39.000850000000000     37.550549999999994     37.836249999999993
C      37.516750000000002     38.383650000000003     38.217349999999996
H      36.763649999999998     37.566249999999989     38.880549999999999
H      39.277450000000002     37.711650000000006     38.841849999999994
H      37.552850000000007     39.128349999999998     39.052250000000001
H      36.711650000000006     39.002049999999990     37.320049999999995
O      39.288349999999994     36.871650000000002     36.947749999999999
