162

C      37.558349999999997     42.865699999999990     38.672849999999997
C      37.205950000000001     41.852300000000000     37.612750000000005
C      33.102450000000005     40.100700000000003     38.547649999999997
C      38.015749999999997     40.769000000000005     36.836649999999999
C      32.564550000000004     40.932999999999993     37.379750000000008
C      36.314950000000010     42.407799999999995     35.189250000000008
C      36.259850000000007     41.831100000000006     38.709150000000001
C      37.239750000000001     42.023300000000006     36.130749999999999
C      33.708950000000002     41.109399999999994     38.045850000000009
C      36.827150000000003     44.085099999999997     39.330150000000003
C      37.052950000000010     45.472399999999993     39.369149999999998
C      37.900150000000004     44.531000000000006     38.427550000000004
C      39.039950000000005     45.175200000000004     37.909350000000003
C      38.902150000000006     46.681700000000006     38.105950000000000
C      37.871049999999997     46.607299999999995     38.895349999999993
C      34.525950000000002     42.117499999999993     38.599249999999998
C      37.214750000000009     47.940699999999993     39.385050000000000
C      42.659950000000009     36.307399999999994     37.651450000000004
C      41.443750000000009     35.346599999999995     37.502550000000006
C      42.440950000000001     40.239999999999995     34.404350000000001
C      42.886450000000011     37.613500000000002     36.934450000000005
C      40.649050000000003     35.678299999999993     36.394750000000009
C      41.853450000000009     38.777299999999997     34.794250000000005
C      41.583750000000009     39.322400000000002     33.552150000000005
C      41.948549999999997     37.633499999999998     35.780450000000009
C      40.903750000000002     36.917699999999996     35.436450000000001
C      43.287150000000011     36.131699999999995     38.956350000000000
C      42.990750000000006     35.528499999999994     40.064750000000011
C      41.813549999999999     34.529399999999995     39.944350000000000
C      41.285549999999994     34.282399999999996     38.516650000000006
C      44.399050000000003     37.188699999999997     39.051149999999993
C      45.389350000000000     36.873699999999999     40.145449999999997
C      43.610849999999992     35.880799999999994     41.364449999999991
C      44.859649999999995     38.280400000000000     38.164050000000003
C      44.055650000000000     38.530100000000004     37.024949999999997
C      44.501950000000001     39.549899999999994     36.057650000000002
C      44.006750000000011     40.062399999999997     34.566950000000006
C      39.688650000000010     34.728399999999993     35.812050000000006
C      39.311450000000008     33.623299999999993     36.769150000000003
C      40.300549999999994     33.223299999999995     38.095250000000000
C      41.142150000000001     33.513199999999998     41.060249999999996
C      41.175449999999998     34.753500000000003     41.970850000000006
C      42.721950000000007     35.221900000000005     42.575850000000003
C      46.616050000000001     37.397099999999995     40.465150000000001
C      38.237350000000006     35.286999999999999     35.456150000000001
C      36.889850000000010     35.614299999999993     36.232550000000003
C      36.193849999999998     37.107699999999994     36.116450000000007
C      41.267550000000007     31.859500000000001     37.965050000000005
C      40.171950000000002     34.435599999999994     34.397150000000003
C      42.177950000000010     41.649100000000004     34.671150000000004
C      31.258650000000003     35.596499999999999     36.847550000000005
C      30.793050000000001     35.944100000000006     38.201950000000004
C      31.769650000000006     30.679900000000000     38.853549999999998
C      31.767650000000003     31.357799999999997     40.326450000000001
C      31.480550000000001     34.114599999999996     36.907850000000003
C      30.892750000000007     35.326599999999999     39.507549999999995
C      31.562250000000006     31.808299999999999     37.953449999999997
C      31.501649999999998     32.753799999999998     40.637850000000007
C      31.583150000000003     33.290999999999997     38.203450000000004
C      31.335650000000001     33.745199999999997     39.508650000000010
C      31.606950000000005     36.582399999999993     35.754750000000008
C      31.495649999999998     37.953599999999994     35.291250000000005
C      32.064149999999998     39.122299999999996     35.950250000000004
C      31.778750000000002     29.280100000000001     38.701350000000005
C      32.469650000000001     28.535300000000003     39.740749999999998
C      32.844650000000001     29.233500000000003     40.982950000000002
C      31.944050000000004     30.413000000000000     41.393750000000004
C      32.579150000000006     36.816599999999994     34.637050000000002
C      30.981050000000003     37.544200000000004     33.121950000000005
C      30.592550000000003     38.313299999999998     34.184849999999997
C      34.002749999999999     36.454399999999993     35.051850000000009
C      31.647450000000006     33.630099999999999     35.591650000000008
C      31.591350000000006     32.225599999999993     35.377549999999999
C      31.349850000000004     31.273100000000003     36.515250000000002
C      30.185549999999999     36.186799999999998     40.384450000000008
C      29.572450000000003     37.277799999999999     39.560549999999992
C      30.314750000000004     37.230800000000002     38.219250000000002
C      31.543750000000003     40.398399999999995     36.481150000000007
C      32.026650000000004     31.122299999999996     42.722650000000009
C      28.916050000000006     35.543999999999997     40.834449999999997
C      34.705950000000001     37.175600000000003     36.003150000000005
C      31.842950000000002     28.191399999999998     37.657050000000005
C      35.142850000000010     42.391899999999993     34.417750000000005
C      34.228150000000007     43.820200000000000     34.377650000000003
C      30.495849999999997     41.180099999999996     35.789050000000003
H      29.417850000000001     41.099000000000004     36.121250000000003
H      33.538150000000002     39.861599999999996     39.476849999999999
H      39.111249999999998     40.644400000000005     36.682750000000006
H      36.328550000000000     41.030899999999988     39.547550000000008
H      39.261949999999999     47.610600000000005     37.712050000000005
H      34.160950000000000     41.927700000000002     39.875149999999998
H      34.404950000000007     43.041499999999999     38.179950000000005
H      32.750650000000007     36.229299999999995     32.246650000000002
H      37.823249999999994     48.890600000000006     39.142950000000006
H      36.727850000000004     48.214799999999997     40.349049999999998
H      40.447950000000006     36.987399999999994     34.449150000000003
H      41.234649999999995     39.384600000000006     32.515350000000005
H      45.550550000000001     39.133499999999998     38.115050000000004
H      45.503450000000001     39.546899999999994     36.105950000000000
H      44.279649999999997     40.467500000000001     36.500450000000008
H      44.214350000000010     39.396299999999997     33.637650000000001
H      44.621650000000002     40.793700000000001     33.981150000000007
H      38.885650000000005     32.751499999999993     36.153350000000003
H      38.438650000000010     34.241899999999994     37.317150000000005
H      39.818250000000006     32.718699999999998     39.013350000000003
H      39.971750000000007     33.256699999999995     41.056249999999991
H      41.522450000000006     32.570400000000006     40.646750000000004
H      40.273650000000004     34.426799999999993     42.834550000000000
H      40.965750000000000     35.647099999999995     41.227350000000001
H      43.148750000000007     34.483999999999995     43.420350000000006
H      42.462050000000005     36.164099999999998     43.111750000000008
H      38.391950000000008     36.159199999999998     34.711750000000002
H      37.931949999999993     34.483500000000006     34.897750000000009
H      37.128350000000005     35.232999999999997     37.357750000000003
H      35.870450000000005     34.944199999999995     35.722450000000002
H      36.784850000000006     37.677400000000006     35.377150000000007
H      36.166150000000002     37.588300000000004     37.119249999999994
H      40.901150000000001     31.263900000000000     37.115250000000003
H      42.414050000000003     32.233500000000006     37.960650000000008
H      41.238350000000004     31.100499999999997     38.893450000000009
H      41.224150000000009     34.225399999999993     34.130550000000007
H      39.826350000000005     35.131299999999996     33.669950000000007
H      39.704150000000006     33.424799999999998     34.341749999999998
H      43.061850000000000     42.273200000000003     34.614850000000004
H      41.957350000000005     41.836699999999993     35.848649999999992
H      41.370050000000006     42.162699999999987     33.817850000000000
H      31.218650000000004     33.040499999999994     41.728950000000005
H      32.668650000000007     38.538100000000000     36.443050000000007
H      32.922850000000004     27.634800000000002     39.560549999999992
H      33.305550000000011     28.668000000000003     41.850450000000002
H      30.222150000000006     37.606300000000005     32.292650000000002
H      29.689850000000007     38.915099999999995     34.545049999999996
H      34.515150000000006     35.784300000000002     34.396950000000004
H      31.970650000000006     34.218500000000006     34.735050000000001
H      31.474550000000001     30.436199999999999     35.772950000000002
H      31.333550000000002     32.052999999999997     34.362750000000005
H      30.912150000000004     36.654199999999996     41.349850000000004
H      28.494950000000003     37.429100000000005     39.317549999999997
H      30.201850000000000     37.929500000000004     39.939349999999997
H      30.224550000000001     37.864599999999996     37.296250000000008
H      29.080550000000002     34.632000000000005     41.463349999999991
H      28.346649999999997     36.417599999999993     41.253950000000010
H      28.584949999999999     35.008600000000001     39.925249999999991
H      34.524850000000001     38.252399999999994     35.868850000000002
H      34.101350000000011     37.011200000000002     36.842350000000003
H      31.673350000000006     27.109399999999997     37.719949999999997
H      31.803750000000008     28.447899999999997     36.521450000000009
H      32.916449999999998     27.767900000000001     37.524149999999999
H      44.992150000000009     36.870000000000005     42.422850000000004
H      34.014250000000004     41.775599999999997     34.502550000000006
H      34.178350000000009     44.384000000000000     35.411850000000008
H      33.280149999999999     43.438500000000005     33.948750000000004
H      34.437550000000002     44.319699999999997     33.635750000000009
H      30.724350000000001     42.267200000000003     35.748750000000008
H      30.269449999999999     40.598699999999994     34.947850000000003
H      37.556350000000009     39.778800000000004     36.952150000000003
H      39.900749999999995     44.689699999999988     37.995949999999993
H      36.159550000000010     48.088900000000010     38.834949999999992
N      44.780250000000009     36.573599999999999     41.414050000000010
N      32.250150000000005     36.872500000000002     33.105350000000008
O      47.653350000000003     37.767700000000005     40.885550000000002
O      31.948950000000004     31.448599999999999     43.753349999999998
