76

C      33.516449999999999     33.087549999999993     38.306614999999987
C      33.025750000000002     33.166950000000000     39.931785000000005
C      38.582350000000005     35.522950000000002     39.942985000000007
C      39.707250000000002     35.452750000000002     39.072784000000006
C      35.783750000000012     41.941149999999993     32.718814999999992
C      37.439450000000008     36.268049999999995     40.060824999999994
C      36.664650000000009     41.408149999999992     33.829115000000002
C      37.781650000000006     40.679049999999989     33.326915000000000
C      39.439350000000005     36.286449999999995     37.873914999999997
C      35.093750000000007     41.007649999999998     36.124115000000003
C      35.173950000000005     40.234049999999996     37.351015000000004
C      39.139650000000003     38.435649999999995     34.109814999999998
C      39.362050000000011     37.795250000000003     35.402514999999994
C      36.408349999999999     38.391249999999992     38.698135000000008
C      36.226250000000000     40.712550000000000     35.133314999999996
C      38.053250000000006     39.480249999999991     34.225214999999984
C      37.335750000000004     37.212150000000001     38.888635999999998
C      36.265350000000005     39.231649999999988     37.543814999999995
C      38.315750000000008     37.306950000000001     37.817215000000004
C      38.462950000000006     38.144649999999992     36.520115000000004
C      37.256149999999998     39.770249999999997     35.244015000000005
C      37.219150000000006     38.943850000000005     36.417815000000004
C      40.491650000000007     36.092750000000002     36.830514999999984
C      40.424850000000006     36.904549999999993     35.499115000000003
C      38.673349999999999     34.508249999999997     41.067955000000005
C      39.860750000000010     33.656649999999992     40.941685000000007
C      40.755450000000010     33.598849999999992     40.000355000000006
C      40.829150000000006     34.571649999999998     38.916859000000002
C      41.915450000000007     34.513249999999999     38.004414999999995
C      41.752150000000007     35.260249999999999     36.733315000000005
C      36.671350000000004     36.308449999999993     41.587325000000007
C      36.364950000000007     34.801549999999992     41.815225000000005
C      37.679350000000007     34.322550000000000     42.211105000000003
C      34.119150000000005     41.006249999999994     37.973614999999995
C      35.499350000000000     34.369250000000001     40.613884999999996
C      34.438150000000007     33.186149999999991     40.886465000000008
C      35.554250000000003     34.737850000000002     43.045805000000016
C      42.735950000000003     35.583549999999995     35.562415000000001
C      37.498150000000010     32.702549999999995     42.496015000000007
C      33.227950000000007     42.217649999999999     33.554614999999998
C      33.931049999999999     43.382249999999999     32.912914999999998
H      34.073950000000011     32.113149999999997     38.057715000000002
H      34.244049999999994     33.934749999999994     38.164114999999995
H      32.628650000000007     32.341450000000002     40.372444999999999
H      32.279049999999998     34.027349999999998     40.175835000000006
H      38.308350000000004     40.447449999999996     32.464314999999999
H      34.262950000000004     41.601750000000003     35.744415000000004
H      39.224750000000007     38.114149999999995     33.084914999999995
H      35.799650000000007     38.617049999999999     39.513695000000006
H      41.207450000000009     36.959650000000003     34.689714999999993
H      39.897650000000006     32.867550000000001     41.725205000000003
H      41.616250000000008     32.653250000000000     40.088595000000005
H      42.852350000000001     34.153349999999996     38.337914999999988
H      36.023450000000004     37.044249999999998     41.633744999999998
H      37.469850000000001     36.736950000000000     42.220435000000002
H      37.911449999999995     34.886149999999994     43.094015000000006
H      33.906450000000000     41.970250000000000     37.621214999999992
H      34.634350000000005     35.091149999999992     40.189994999999996
H      36.090350000000001     34.070450000000001     39.646594999999998
H      34.888050000000000     32.254550000000002     40.915795000000003
H      34.225950000000005     33.153649999999999     42.078885000000007
H      35.962449999999997     35.126549999999995     44.038585000000005
H      34.818350000000009     33.657549999999993     43.262155000000007
H      34.573750000000004     35.163249999999991     43.019065000000005
H      43.258150000000008     35.544550000000001     34.350714999999994
H      43.720950000000002     35.037849999999999     35.850214999999984
H      42.857650000000007     36.744449999999993     35.555414999999996
H      36.680450000000008     32.448749999999997     43.146635000000011
H      38.277949999999997     32.381350000000005     43.233405000000005
H      37.308349999999997     32.252749999999999     41.475685000000006
H      34.202249999999999     43.870150000000002     33.903314999999992
H      32.701850000000007     32.989449999999998     37.484614999999991
H      33.299150000000004     43.886850000000003     32.233414999999994
H      33.191850000000002     40.575150000000001     37.867715000000004
O      34.997650000000007     42.487450000000003     31.961414999999995
O      32.578950000000006     41.480649999999990     34.103714999999994
