6

C      37.963774999999998     37.917099999999991     37.285550000000001
C      38.168584999999993     38.499000000000009     38.727250000000012
H      37.897464999999997     36.869300000000010     37.526350000000008
H      39.028575000000004     37.777600000000007     36.429949999999991
H      36.971424999999996     38.070499999999996     36.963450000000009
O      38.394094999999993     39.130699999999990     39.570050000000009
