40

C      37.762999999999991     37.807000000000002     38.116864999999990
C      36.241799999999998     37.614400000000003     38.023325000000000
C      37.602200000000011     33.603000000000009     39.940004999999999
C      38.790700000000001     36.975300000000004     38.896405000000001
C      35.617500000000007     36.474500000000006     38.693955000000003
C      38.714800000000011     34.566400000000002     40.141604999999998
C      38.093699999999998     35.772400000000005     39.485905000000002
C      36.575500000000005     35.557900000000004     39.309304999999995
C      38.563599999999994     38.979200000000006     37.736954999999995
C      37.929200000000009     39.938200000000009     36.878515000000007
C      36.498100000000008     39.606700000000004     36.631905000000003
C      40.030600000000007     39.414699999999996     38.133084999999994
C      40.629899999999992     40.651600000000002     37.738994999999989
C      40.024000000000001     41.515299999999996     36.659025000000000
C      38.506199999999993     41.340699999999998     36.441095000000004
C      40.503500000000003     38.733099999999993     39.314305000000004
C      40.038800000000009     37.327500000000001     39.351205000000007
C      40.048399999999987     34.011600000000001     40.769504999999995
C      39.254100000000008     41.176000000000002     35.186485000000005
C      37.886299999999991     42.563400000000001     36.590615000000000
C      36.593500000000006     42.769800000000004     36.204925000000003
C      35.295000000000002     43.044700000000006     35.767224999999996
H      37.837899999999991     32.613199999999992     40.097504999999998
H      34.805300000000003     35.663100000000000     38.324264999999997
H      35.835499999999996     40.232600000000005     36.059584999999998
H      41.568899999999999     40.887700000000009     38.082835000000003
H      40.490400000000008     42.572699999999998     36.766544999999994
H      41.438200000000009     38.929199999999994     39.912104999999997
H      40.754200000000012     36.481800000000007     39.855905000000007
H      40.805199999999999     34.780299999999997     41.032105000000001
H      39.636199999999988     33.705500000000001     41.737804999999994
H      39.682399999999987     41.498300000000000     34.262195000000006
H      39.042400000000001     40.167900000000003     34.854304999999997
H      34.632100000000008     38.574200000000005     37.036545000000004
H      38.424599999999998     43.386800000000008     37.069485000000000
H      34.679900000000004     43.134100000000004     34.715604999999996
H      34.431100000000001     42.997000000000000     36.311445000000006
H      40.363499999999988     33.019000000000005     40.554405000000003
N      36.366200000000006     34.277600000000007     39.600004999999996
N      35.673500000000004     38.638300000000001     37.255504999999999
