7

C      39.194800000000001     38.471199999999996     37.206949999999992
C      37.879500000000000     38.486500000000007     37.937250000000006
C      39.003400000000006     37.794800000000009     38.581850000000003
C      40.177200000000006     37.579999999999998     37.914450000000002
C      36.608600000000003     38.974500000000006     38.537350000000004
H      40.430899999999994     36.744299999999996     38.793050000000008
O      35.569100000000006     39.255700000000004     38.750450000000001
