33

C      39.028250000000007     37.904199999999996     41.921849999999992
C      38.185450000000010     37.173299999999998     37.440450000000006
C      38.691750000000006     37.371200000000002     38.946950000000001
C      35.798950000000005     40.391000000000005     39.378550000000004
C      36.520350000000008     39.350000000000009     36.884450000000001
C      38.038250000000012     38.453699999999998     39.583650000000006
C      35.677250000000008     40.206299999999999     38.037349999999996
C      36.813850000000009     39.248199999999990     39.885350000000003
C      37.387850000000014     38.192999999999998     36.745150000000002
C      38.793550000000010     36.224299999999999     36.760550000000002
C      39.963550000000012     35.320500000000010     37.021850000000001
C      40.429250000000003     35.528900000000007     38.427750000000003
C      39.885950000000008     36.633899999999997     39.180450000000000
C      36.481650000000009     38.617100000000008     35.490150000000000
C      39.217350000000010     36.140600000000006     35.281350000000003
C      37.692950000000010     39.030600000000007     40.913050000000005
C      40.097950000000012     37.213900000000010     34.676650000000002
C      35.718750000000014     37.299599999999991     34.774850000000001
H      40.805450000000015     37.612499999999997     41.834650000000003
H      35.019550000000010     41.161000000000001     40.041350000000001
H      34.927850000000014     40.729399999999998     37.583950000000002
H      40.400150000000011     34.905500000000004     36.122850000000000
H      41.213549999999998     34.838999999999999     38.820850000000000
H      40.466850000000008     36.935400000000001     39.981450000000002
H      37.168850000000006     39.247100000000003     34.970150000000004
H      39.438050000000004     35.297100000000000     34.813050000000004
H      40.479450000000014     37.933999999999997     35.377050000000004
H      40.652350000000006     37.127400000000009     33.751150000000003
H      36.325550000000014     36.890600000000006     33.955950000000001
H      35.904350000000008     36.156100000000009     35.389650000000003
H      34.786450000000002     37.539500000000004     34.047250000000005
O      38.063850000000002     38.562200000000004     42.248849999999997
O      39.913050000000013     37.034700000000001     41.706550000000000
