6

C      37.473984999999999     38.531149999999982     38.025659999999988
C      38.494484999999997     37.547849999999997     37.896600000000007
H      36.389615000000006     38.528649999999999     38.132829999999998
H      37.844284999999999     39.507849999999991     38.179540000000003
H      38.204085000000006     36.492150000000009     37.663359999999997
H      39.610384999999994     37.738749999999996     38.336640000000003
