41

C      38.807649999999995     38.206749999999992     37.395599999999995
C      38.314550000000004     37.618350000000000     36.068200000000004
C      35.248750000000001     36.107450000000000     39.481800000000007
C      38.266749999999995     38.095150000000004     38.813799999999993
C      37.376950000000001     36.618249999999996     36.247900000000001
C      36.035550000000001     37.245450000000005     39.800500000000000
C      35.780349999999991     35.434550000000002     38.269199999999998
C      37.073050000000002     37.301249999999996     38.728500000000004
C      36.800950000000000     36.305350000000004     37.623799999999996
C      38.541150000000002     39.053149999999995     39.936599999999991
C      37.298250000000003     39.236850000000004     40.552300000000002
C      36.271950000000004     38.117750000000001     41.120000000000005
C      40.119450000000001     38.613450000000000     36.926200000000001
C      40.828949999999992     38.361949999999993     35.598200000000006
C      39.276249999999997     38.111049999999999     34.944500000000005
C      36.756750000000004     37.855049999999999     35.532200000000003
C      36.382150000000003     40.427650000000000     39.629000000000005
C      39.084450000000004     40.570549999999997     39.718599999999995
C      37.295450000000002     35.279949999999999     35.457400000000007
H      34.548749999999998     35.571650000000005     40.054200000000002
H      35.420850000000002     34.398250000000004     37.879000000000005
H      39.434550000000002     38.513750000000002     40.534099999999995
H      37.532650000000004     39.942050000000002     41.410299999999992
H      35.454049999999995     38.555349999999997     41.767200000000003
H      36.817449999999994     37.608850000000004     42.022399999999998
H      40.562750000000001     39.314149999999991     37.357100000000003
H      41.447250000000004     39.059449999999998     34.955900000000000
H      41.451250000000002     37.441950000000006     35.463800000000006
H      39.349950000000000     37.535250000000005     33.977600000000002
H      38.663750000000000     38.599649999999997     34.077399999999997
H      36.480850000000004     37.433650000000000     34.578200000000002
H      36.208150000000003     38.327650000000006     36.260000000000005
H      36.265550000000005     40.401949999999992     38.523200000000003
H      35.487749999999998     39.913349999999994     40.110199999999999
H      36.164749999999991     41.601749999999996     39.610699999999994
H      38.913750000000000     40.649249999999988     38.833100000000002
H      40.306950000000001     40.496350000000000     39.547300000000000
H      38.843150000000001     41.293149999999997     40.369000000000000
H      37.016849999999991     34.609049999999996     36.553100000000001
H      38.274149999999999     35.261749999999999     35.203299999999999
H      36.611249999999998     35.239649999999997     34.532100000000000
