41

C      35.885450000000006     39.301449999999996     38.201839999999990
C      35.378550000000004     38.694850000000010     39.441799999999994
C      38.412950000000009     35.353750000000005     37.790379999999999
C      37.890749999999997     34.669350000000009     38.872909999999997
C      36.543949999999995     38.453449999999997     37.249589999999991
C      35.466650000000001     37.377549999999999     39.766129999999997
C      37.701150000000013     36.264550000000007     36.816866999999988
C      36.641049999999993     35.110550000000003     39.547089999999997
C      36.823750000000004     37.089950000000009     37.802359999999993
C      36.344049999999996     36.419350000000009     39.046949999999995
C      35.634450000000001     40.660950000000007     37.677429999999994
C      35.023850000000010     41.395350000000001     38.794469999999997
C      34.674150000000012     40.900649999999999     40.139799999999994
C      34.959150000000008     39.566749999999999     40.437719999999992
C      39.617750000000001     34.862550000000006     37.040488999999994
C      40.284649999999999     33.619750000000003     37.479769999999995
C      39.888150000000010     33.157050000000005     38.905809999999988
C      38.637350000000012     33.529750000000007     39.443599999999996
C      36.211350000000010     41.311350000000004     36.417983000000000
C      35.755350000000007     42.632849999999998     36.131870000000006
C      34.683950000000010     43.196249999999999     37.149190999999995
C      34.368250000000003     42.665050000000008     38.405119999999989
C      41.478850000000008     33.027950000000004     36.918228999999990
C      40.072350000000000     35.840650000000004     35.887869999999999
C      38.499750000000006     36.190650000000005     35.473269999999992
H      36.759950000000003     38.693650000000005     36.203407499999997
H      35.007550000000009     37.118350000000000     40.779309999999995
H      36.375050000000002     34.647250000000007     40.531129999999997
H      34.366650000000007     41.445749999999997     41.003479999999996
H      34.748649999999998     39.306150000000002     41.399329999999999
H      40.355050000000006     32.216749999999998     39.300019999999996
H      38.140249999999995     33.167450000000009     40.442549999999997
H      37.084850000000003     40.902450000000009     35.825770000000006
H      36.072450000000003     43.232150000000004     35.300369999999994
H      34.158150000000006     43.783250000000002     36.471623999999998
H      33.596750000000000     43.265650000000001     38.990409999999990
H      40.879450000000006     35.413750000000007     35.006269999999994
H      40.631450000000001     36.631450000000001     36.198288899999994
H      38.190349999999995     35.444550000000007     34.600670000000001
H      38.680050000000008     37.240350000000007     35.392469999999989
O      42.403250000000000     32.382250000000006     36.886549999999993
