8

C      38.180549999999997     38.412199999999999     37.670799999999993
C      37.796149999999997     37.302100000000010     38.514299999999999
H      37.947150000000001     38.292000000000002     36.394500000000001
H      37.498950000000001     39.440300000000001     37.603699999999996
H      38.714849999999998     36.559699999999999     38.464099999999995
H      36.770850000000003     36.863900000000008     38.496499999999997
H      37.775950000000002     37.790300000000009     39.605499999999999
H      39.229149999999997     38.537400000000005     37.711900000000000
