77

C      36.969899999999996     41.437899999999985     35.355099999999993
C      36.610900000000001     36.480999999999995     41.493299999999991
C      38.116699999999994     37.047399999999996     41.529699999999991
C      39.807399999999987     38.886999999999986     40.772799999999989
C      36.503500000000003     39.083499999999994     44.507099999999994
C      37.629099999999994     35.622799999999991     41.502499999999998
C      39.481099999999998     39.838799999999999     42.010399999999990
C      36.627099999999999     37.922800000000002     43.702500000000001
C      37.767399999999995     39.793399999999998     44.195899999999995
C      37.804099999999991     37.913899999999991     42.863399999999999
C      38.543700000000001     39.168500000000002     43.114899999999992
C      38.339799999999997     34.588999999999999     41.540599999999984
C      34.361900000000006     37.197899999999997     44.631100000000004
C      35.693899999999999     36.792899999999996     44.224099999999993
C      38.821199999999990     37.786099999999998     40.180499999999995
C      39.708599999999990     37.086900000000000     38.965299999999985
C      41.169499999999999     37.022799999999997     39.647299999999987
C      41.209800000000001     38.334499999999998     40.431500000000000
C      38.824599999999990     40.272899999999993     40.819199999999995
C      39.415599999999998     37.853899999999996     37.653999999999996
C      40.719399999999993     40.588199999999993     42.646900000000002
C      40.960099999999997     35.830900000000000     40.695099999999996
C      37.600600000000000     40.614299999999993     34.333299999999994
C      37.213700000000003     39.370299999999993     33.569099999999992
C      39.115600000000001     35.986999999999995     35.536799999999999
C      38.131900000000002     35.744099999999996     34.512499999999989
C      40.350399999999993     38.636699999999998     34.644499999999994
C      35.826899999999995     38.834799999999994     33.958699999999993
C      39.169699999999992     37.194600000000001     36.336499999999987
C      37.122799999999998     36.675100000000000     33.956999999999994
C      38.898499999999999     38.370200000000004     35.276699999999991
C      37.525099999999995     38.172099999999993     34.424599999999984
C      38.964399999999998     40.980100000000000     33.771699999999996
C      38.908999999999992     41.325700000000005     32.317699999999988
C      38.420400000000001     40.296100000000003     31.528099999999998
C      37.977599999999995     39.119700000000002     32.274699999999996
C      40.172699999999992     40.079100000000004     33.936499999999995
C      41.617199999999997     38.477200000000003     35.298299999999983
C      39.859299999999990     41.435499999999998     34.955599999999990
C      40.804400000000001     37.589699999999993     33.762099999999990
H      35.947499999999991     37.322399999999995     41.176499999999990
H      35.900999999999996     39.148299999999999     45.405100000000004
H      38.015599999999992     40.650399999999998     44.705399999999997
H      37.980400000000003     33.642199999999995     41.113900000000001
H      39.162899999999993     34.629399999999997     42.220299999999995
H      34.067599999999999     37.995500000000000     43.943899999999999
H      33.602000000000004     36.501300000000001     44.839200000000005
H      36.513199999999998     36.100299999999997     44.597499999999997
H      37.984399999999994     38.208599999999997     39.841499999999982
H      39.810899999999990     36.135100000000001     38.415300000000002
H      41.992699999999999     37.010899999999999     38.891099999999994
H      41.688900000000004     38.141799999999996     41.549299999999988
H      41.617399999999989     38.970800000000004     39.834800000000001
H      39.084999999999994     38.798499999999997     37.764399999999995
H      41.440600000000003     41.240900000000003     42.143699999999995
H      40.259699999999995     41.163099999999993     43.408099999999990
H      41.290899999999993     39.883599999999994     43.072299999999998
H      42.023599999999988     35.541300000000000     40.891099999999994
H      40.692999999999998     36.178399999999996     41.776499999999999
H      40.427699999999987     34.867599999999996     40.430499999999995
H      39.259399999999999     34.875999999999998     35.943199999999990
H      38.495899999999992     34.788399999999996     34.172799999999995
H      36.658699999999996     36.617799999999995     33.083100000000002
H      38.664100000000005     42.297199999999989     31.879899999999996
H      38.573599999999999     40.077300000000001     30.594899999999999
H      37.761600000000001     38.235199999999999     31.819099999999995
H      38.440500000000000     39.187899999999992     35.740499999999997
H      40.860399999999998     40.194200000000002     33.290999999999997
H      42.397999999999996     39.232399999999991     35.440899999999999
H      41.256599999999992     38.183000000000000     36.375699999999995
H      39.254499999999993     41.747099999999996     35.834999999999994
H      40.012699999999995     42.357800000000005     34.292599999999993
H      41.777099999999990     37.305099999999996     33.615299999999991
H      40.049800000000005     36.731699999999996     33.661099999999990
O      36.424199999999999     41.896499999999996     36.206599999999995
O      38.795999999999992     41.369300000000003     40.294399999999982
O      34.763599999999997     38.520099999999992     33.722799999999992
