92

C      35.617449999999991     38.451149999999998     35.759999999999998
C      35.574250000000006     39.894250000000007     35.719600000000007
C      41.729949999999988     36.408650000000002     35.367500000000007
C      42.754449999999991     39.615149999999993     35.494600000000005
C      41.872650000000007     41.639850000000003     36.413600000000002
C      40.846749999999986     42.759749999999997     36.543000000000006
C      37.088650000000001     37.866750000000003     35.581200000000003
C      36.890950000000004     40.837350000000001     35.678300000000007
C      40.114150000000009     36.484449999999995     35.683999999999997
C      39.270150000000001     42.488450000000000     36.184000000000005
C      41.815750000000008     40.151550000000000     36.397399999999998
C      38.317949999999996     38.637650000000001     35.972900000000003
C      38.125649999999993     40.077250000000006     36.053000000000004
C      39.374150000000000     37.574550000000002     36.352200000000003
C      39.112849999999995     41.038349999999994     36.109899999999996
C      40.635050000000007     41.139950000000006     36.664200000000001
C      37.217750000000009     36.417650000000002     35.658700000000003
C      38.759349999999998     36.316050000000004     35.727500000000006
C      36.847650000000002     42.249850000000002     35.528200000000005
C      37.940049999999985     43.171250000000001     35.956100000000006
C      34.612650000000002     37.520850000000003     35.356500000000004
C      34.906649999999999     36.251349999999995     34.754100000000001
C      36.146849999999986     35.434049999999999     35.367000000000004
C      34.351550000000003     40.538150000000002     35.131600000000006
C      34.654449999999997     41.741250000000001     34.047900000000006
C      35.396050000000002     42.792750000000005     35.077800000000003
C      35.510349999999988     39.249049999999997     37.178800000000003
C      35.170550000000006     36.612550000000006     33.330600000000004
C      33.302850000000007     40.960150000000006     36.318500000000007
C      35.739349999999988     41.388749999999995     32.971100000000007
C      39.793650000000000     33.848550000000003     36.640400000000000
C      38.421650000000000     33.616150000000005     37.021000000000008
C      41.130350000000007     35.576250000000002     40.061500000000002
C      40.006950000000003     35.802750000000003     41.174999999999997
C      40.656850000000006     34.488150000000005     37.613200000000006
C      38.027249999999995     33.977349999999994     38.453100000000006
C      41.581249999999997     37.155150000000006     39.687700000000007
C      38.806049999999999     35.184250000000006     40.648600000000002
C      40.260649999999998     34.836850000000005     38.854799999999997
C      38.895150000000001     34.719750000000005     39.348100000000002
C      40.330750000000009     33.447050000000004     35.372400000000006
C      39.335149999999999     32.787450000000000     34.556500000000007
C      37.600749999999991     32.700750000000006     36.184100000000001
C      42.405649999999994     36.118149999999993     40.418600000000005
C      42.619150000000005     36.515150000000006     41.902799999999999
C      41.659750000000003     36.423750000000005     42.862600000000008
C      40.142150000000001     36.292950000000005     42.587399999999995
C      41.528049999999993     33.777550000000005     34.540200000000006
C      42.326250000000002     34.998250000000006     34.917100000000005
C      41.407350000000008     32.957050000000002     33.350800000000007
C      39.999850000000009     32.461250000000000     33.401900000000005
C      41.838449999999995     36.286750000000005     33.866200000000006
H      36.311749999999989     34.633350000000000     37.387900000000002
H      37.224150000000009     31.729350000000004     34.245700000000006
H      42.321250000000006     36.867850000000004     35.984000000000002
H      41.297550000000001     43.631450000000001     36.288100000000007
H      37.817149999999998     44.270649999999996     35.839199999999998
H      33.776149999999987     38.471150000000002     34.784400000000005
H      34.038150000000002     35.575650000000003     34.517399999999995
H      36.519649999999999     34.321050000000007     35.005399999999995
H      33.756349999999998     39.707250000000002     34.444400000000002
H      33.557150000000007     41.786650000000002     33.863900000000001
H      35.466049999999996     43.871650000000002     34.736800000000002
H      34.692549999999997     42.856150000000000     36.054199999999994
H      36.493250000000003     39.705050000000000     37.805800000000005
H      34.543250000000000     39.313750000000006     37.623699999999999
H      35.454649999999987     37.647550000000003     33.326400000000007
H      34.314350000000005     36.517949999999999     32.636800000000008
H      36.114850000000004     36.056850000000004     33.123700000000007
H      32.937750000000008     41.931650000000005     36.118499999999997
H      32.355850000000004     40.209049999999998     36.581000000000003
H      33.828350000000000     41.052149999999997     37.237600000000008
H      36.557449999999989     42.184349999999995     32.766100000000002
H      35.318449999999999     41.214150000000004     32.091899999999995
H      36.015650000000008     40.341150000000006     33.410700000000006
H      41.921850000000006     37.339850000000006     38.672900000000006
H      41.682850000000002     34.690350000000002     37.134100000000004
H      37.331550000000007     33.505950000000006     39.271799999999999
H      42.029849999999996     37.944750000000006     40.320299999999996
H      38.210549999999998     34.903150000000004     41.502800000000008
H      36.468850000000003     32.759550000000004     36.486400000000003
H      43.296050000000008     35.593350000000001     39.978200000000001
H      43.644149999999996     37.015150000000006     42.124500000000005
H      42.129749999999987     36.512450000000001     43.908100000000005
H      39.324250000000006     36.750250000000001     43.303599999999996
H      43.512550000000005     34.881150000000005     34.947900000000004
H      42.300049999999999     32.379250000000006     32.851500000000001
H      39.763749999999987     31.888949999999998     32.455200000000005
N      37.966549999999998     32.272550000000003     34.962900000000005
O      35.607749999999996     35.127050000000004     36.787599999999998
O      43.368249999999989     39.855250000000005     34.642900000000004
O      41.021950000000004     36.679250000000003     33.067400000000006
