52

C      38.394549999999995     38.551499999999990     39.103649999999988
C      37.943950000000001     38.104699999999994     37.724050000000005
C      41.019849999999998     34.623199999999997     38.815750000000008
C      39.524650000000001     37.919299999999993     39.880350000000007
C      38.454050000000002     36.810399999999987     37.183050000000009
C      41.086350000000003     35.778999999999996     39.839150000000004
C      40.170749999999998     35.013999999999996     37.695350000000005
C      40.186749999999996     36.763399999999990     39.264250000000004
C      39.645449999999997     36.410899999999998     37.821750000000009
C      37.796349999999997     39.658199999999994     39.816350000000000
C      36.594549999999998     40.280499999999989     39.082049999999995
C      36.120449999999998     39.456599999999995     37.887550000000005
C      36.758150000000001     38.615299999999991     36.959050000000005
C      38.119549999999997     40.318399999999997     41.081550000000007
C      37.300849999999990     41.352699999999999     41.433750000000003
C      36.326649999999994     42.078999999999994     40.682949999999991
C      36.010350000000003     41.641700000000000     39.416350000000008
C      39.195349999999998     39.597899999999996     41.738349999999997
C      39.918050000000001     38.574099999999987     41.128749999999997
C      36.097749999999998     40.684599999999989     35.646450000000002
C      37.256449999999994     41.375699999999995     35.438749999999999
C      36.377549999999992     40.972199999999987     34.342150000000004
C      35.651049999999991     39.552499999999995     36.544049999999999
C      41.535049999999991     35.875799999999998     41.213549999999998
C      38.343349999999994     42.325599999999994     35.674050000000008
C      40.578850000000003     34.646099999999990     36.352450000000005
C      41.683749999999996     35.901399999999995     36.097049999999996
C      39.769449999999999     33.753399999999999     38.807749999999999
C      38.911549999999998     34.188900000000004     40.134550000000004
C      34.843350000000001     42.265499999999989     38.497250000000008
H      41.955849999999998     34.071699999999993     38.527850000000001
H      38.038449999999997     36.029199999999989     36.428349999999995
H      37.487949999999998     41.833099999999988     42.470049999999986
H      35.950550000000000     42.931999999999988     41.167150000000007
H      39.547849999999997     39.543599999999998     42.780050000000003
H      40.798450000000003     38.166299999999993     41.632249999999999
H      36.383649999999996     40.741099999999989     33.219949999999997
H      34.702350000000003     38.709299999999999     36.174849999999992
H      41.105849999999997     33.643699999999995     36.346950000000007
H      39.885550000000002     34.640799999999999     35.491050000000001
H      41.931750000000001     36.517299999999992     37.024749999999997
H      41.208250000000000     36.746499999999997     35.333050000000000
H      42.178449999999998     35.757399999999990     35.272850000000005
H      39.847949999999997     32.675600000000003     38.742950000000008
H      39.559950000000001     34.716799999999992     40.929449999999989
H      38.554749999999999     33.332700000000003     40.705849999999998
H      38.099550000000001     34.869799999999998     39.861649999999997
H      34.369450000000001     43.324399999999997     38.376149999999996
H      33.821550000000002     41.424099999999996     38.340150000000008
H      35.112250000000003     41.656399999999991     37.629750000000001
O      42.136049999999997     35.820099999999996     42.167249999999996
O      39.150849999999998     43.078099999999992     35.920249999999996
