177

C      44.058389999999996     35.574079999999988     42.833900000000000
C      32.520009999999999     46.020642000000002     43.475300000000004
C      28.010809999999992     41.996179999999988     39.378900000000002
C      41.565209999999993     38.534880000000001     37.191400000000002
C      29.281509999999990     40.584980000000002     33.686900000000001
C      29.324809999999999     41.751479999999994     33.008200000000002
C      28.891809999999985     44.530579999999993     33.707800000000006
C      27.914510000000014     45.953460000000007     34.277700000000003
C      28.751309999999989     45.012779999999992     34.998800000000003
C      31.229809999999993     43.704279999999990     35.061200000000007
C      30.112309999999987     44.652779999999993     34.599900000000005
C      28.916509999999995     40.644779999999997     32.325800000000001
C      28.366509999999998     47.340169999999993     33.504900000000006
C      36.980009999999993     45.655541400000004     38.904600000000002
C      42.102172600000003     39.409279999999988     35.745300000000007
C      42.945239999999998     31.535479999999993     40.476900000000008
C      46.571709999999996     32.801079999999999     39.886200000000002
C      47.560400000000001     33.455680000000001     40.799800000000005
C      43.888269999999999     32.724279999999993     40.201700000000002
C      44.040579999999999     34.159480000000002     40.716900000000003
C      46.775809999999993     35.305480000000003     40.049500000000002
C      47.322020000000002     34.166879999999992     39.655600000000007
C      45.256039999999999     35.151079999999993     40.347100000000005
C      44.993839999999992     33.492480000000000     39.948200000000007
C      42.614708000000000     30.112980000000000     40.237100000000005
C      44.977109999999996     30.066679999999998     38.003000000000007
C      46.184109999999997     30.250079999999997     39.057899999999997
C      46.808979999999998     31.583979999999997     38.826200000000007
C      42.781892999999997     30.601979999999998     41.623100000000001
C      41.344310000000000     28.870880000000000     38.364800000000002
C      42.556035000000001     29.943179999999998     38.694900000000004
C      43.812179999999998     29.139879999999994     38.248400000000004
C      47.634630000000001     30.327079999999995     39.223700000000001
C      48.229259999999996     34.092780000000005     38.216600000000007
C      48.024529999999992     33.281779999999998     37.007700000000007
C      47.887380000000000     34.290679999999995     35.882700000000007
C      44.208809999999993     29.566780000000001     36.930300000000003
C      28.524110000000007     44.435279999999992     37.032200000000003
C      32.504109999999997     43.924679999999995     34.133600000000001
C      41.669009999999993     39.510080000000002     42.468100000000007
C      40.820609999999995     40.723079999999996     37.799100000000003
C      40.968609999999998     39.903779999999998     41.357200000000006
C      40.516409999999986     40.949179999999998     39.118500000000004
C      43.093409999999999     39.200479999999999     42.238599999999998
C      41.962909999999987     39.906480000000002     37.233300000000007
C      45.160649999999997     39.378079999999997     40.329799999999999
C      45.213009999999997     40.096379999999989     39.048900000000003
C      41.575509999999987     40.516979999999997     40.159400000000005
C      43.781419999999997     39.382879999999993     40.867300000000007
C      43.897059999999996     40.193979999999989     38.651900000000005
C      42.990609999999997     40.176980000000000     39.810900000000004
C      39.153809999999993     39.494879999999995     43.046700000000001
C      38.400010000000002     40.467679999999994     43.749599999999994
C      39.586410000000001     40.367480000000000     41.738300000000002
C      38.620410000000007     41.131679999999996     40.996800000000007
C      43.677259999999997     38.120980000000003     43.016000000000005
C      43.448079999999997     40.806479999999986     37.265600000000006
C      35.823009999999996     37.737979999999993     40.248500000000007
C      29.448110000000000     39.384979999999999     35.770100000000006
C      29.911310000000007     39.736879999999992     39.746400000000001
C      34.761510000000008     46.422929000000003     43.575000000000003
C      46.917400000000001     32.282879999999992     37.071700000000007
H      33.456409999999998     39.955179999999999     39.495799999999996
H      33.314909999999998     40.542879999999997     35.389400000000002
H      40.762209999999996     29.479979999999998     37.685700000000004
H      33.178510000000003     44.687079999999987     40.338800000000006
H      31.721010000000000     42.725979999999993     38.664300000000004
H      35.127009999999984     45.341480000000004     38.292100000000005
H      35.887709999999991     43.771279999999997     39.805400000000006
H      32.491209999999988     40.616479999999996     37.468600000000002
H      30.386709999999987     42.239180000000005     40.008900000000004
H      42.322239000000003     37.713880000000003     37.535100000000007
H      35.347610000000003     43.633479999999984     42.613700000000001
H      32.890110000000007     44.954979999999992     38.176100000000005
H      35.234210000000012     45.109579999999994     41.904499999999999
H      47.221919999999997     33.780779999999993     41.807600000000001
H      26.830309999999997     45.860289000000009     34.480200000000004
H      29.562809999999992     43.985079999999996     38.736600000000003
H      33.017009999999992     44.636479999999992     42.323600000000006
H      28.758610000000004     40.289079999999998     31.317900000000002
H      27.780410000000003     47.257590000000000     32.583900000000007
H      28.181109999999997     48.254420000000003     34.093700000000005
H      29.294910000000009     47.194049999999997     33.069300000000005
H      30.375110000000006     39.223379999999992     37.609199999999994
H      29.830109999999998     43.892179999999996     40.617700000000006
H      31.871409999999983     42.979680000000002     40.638800000000003
H      38.591109999999993     38.580979999999997     42.842600000000004
H      33.492210000000000     41.929079999999999     42.973400000000005
H      29.511210000000013     42.239679999999986     38.216800000000006
H      32.472709999999999     38.950479999999999     40.718499999999999
H      37.831809999999997     44.047979999999995     39.052800000000005
H      31.634910000000005     40.362679999999997     41.412800000000004
H      33.876809999999999     43.849480000000000     37.520800000000001
H      40.420009999999998     38.354579999999999     37.138800000000003
H      31.284909999999996     44.696379999999998     39.639300000000006
H      29.170610000000011     41.530280000000005     41.092499999999994
H      47.306579999999997     36.322479999999992     40.109100000000005
H      44.778860000000002     36.072079999999993     39.821200000000005
H      45.727690000000003     29.923980000000000     40.067800000000005
H      43.603560000000002     30.220779999999998     42.484600000000007
H      42.405456999999998     30.830979999999990     37.895700000000005
H      48.295859999999990     35.138379999999998     38.168600000000005
H      49.169690000000003     33.728380000000001     38.475100000000005
H      49.020229999999998     32.765879999999996     36.820200000000007
H      47.615259999999992     33.851879999999994     35.019800000000004
H      47.050409999999992     34.958879999999994     35.972200000000001
H      48.759610000000002     34.987179999999995     35.906300000000002
H      44.256580000000000     29.971879999999999     36.123500000000007
H      40.902609999999989     39.362979999999986     44.663600000000002
H      44.036839999999998     27.940579999999994     38.158400000000007
H      32.811310000000013     42.812680000000000     33.962800000000001
H      32.971010000000000     44.719880000000003     34.674900000000001
H      32.328410000000005     44.400579999999998     33.202500000000008
H      40.111909999999995     41.183379999999993     37.063500000000005
H      46.289540000000002     39.070979999999992     40.422999999999995
H      46.029209999999999     40.448279999999990     38.338700000000003
H      44.021380000000001     40.604780000000005     36.436500000000002
H      43.577990000000000     41.902379999999994     37.494900000000001
H      31.433309999999999     40.533580000000001     35.572200000000002
H      33.719409999999989     37.231679999999997     39.834400000000002
H      31.723709999999997     41.043079999999996     39.304800000000007
H      33.572609999999997     41.725979999999986     39.874200000000002
H      31.737409999999990     37.219179999999994     39.844100000000005
H      33.946809999999992     43.195479999999996     41.108400000000003
H      32.210809999999995     42.323879999999996     36.267400000000002
H      37.060309999999994     42.457979999999985     40.744300000000003
H      38.584609999999991     42.342680000000001     38.980000000000004
H      32.055809999999987     42.654479999999985     42.548300000000005
H      27.864710000000002     42.909379999999999     34.419500000000006
H      33.872409999999995     43.432980000000001     39.034900000000007
H      36.698310000000006     42.677179999999993     43.556100000000001
H      35.162910000000004     41.362880000000004     41.523100000000007
H      33.711910000000003     40.244479999999989     41.687099999999994
H      47.101559999999992     31.506079999999997     36.394100000000002
H      45.794919999999998     32.814279999999997     36.731200000000001
N      28.545909999999985     42.920879999999990     33.494300000000003
N      32.460409999999996     40.849379999999996     36.009800000000006
N      40.650509999999997     39.182379999999995     43.606900000000003
N      39.023610000000005     41.258079999999993     39.591500000000003
N      30.929610000000004     43.503779999999992     40.400700000000008
N      33.928709999999995     44.526579999999989     41.670099999999998
O      32.600009999999990     45.322579999999995     39.556000000000004
O      44.388569999999994     36.675879999999985     43.263400000000004
O      31.799909999999990     45.345579999999998     42.749200000000002
O      33.389110000000002     46.558940999999997     44.140500000000003
O      28.322509999999987     42.015979999999999     38.180299999999995
O      33.711709999999997     42.505880000000005     38.684100000000001
O      36.822909999999986     43.489779999999989     39.645700000000005
O      31.204809999999988     43.192779999999992     36.194100000000006
O      32.487010000000005     41.832579999999986     42.142200000000003
O      37.779809999999991     45.383979999999994     39.767900000000004
O      36.302109999999992     45.874995000000006     37.902000000000001
O      42.727536999999998     39.017079999999993     34.835000000000001
O      32.457009999999997     37.600279999999998     40.507900000000006
O      29.132309999999983     44.852379999999997     38.034400000000005
O      48.633910000000000     29.906379999999992     39.756800000000005
O      43.711410000000001     34.495480000000001     42.368099999999998
O      41.165009999999988     27.745579999999997     38.555800000000005
O      27.936109999999999     44.049379999999999     36.041600000000003
O      30.996109999999994     42.040480000000002     38.702199999999998
O      44.183290000000000     39.138980000000004     43.345900000000007
O      37.989309999999996     41.024979999999992     44.682099999999998
O      37.510309999999990     41.706679999999992     41.722700000000003
O      35.071109999999997     36.854879999999994     39.784799999999997
O      28.026209999999999     42.030079999999998     40.593800000000002
O      29.599210000000006     38.934380000000004     38.884599999999999
O      28.782409999999992     40.155279999999998     35.082300000000004
O      36.577509999999997     38.494879999999995     40.856300000000005
O      32.313409999999998     39.777079999999991     41.928700000000006
O      32.419010000000000     40.003479999999996     38.706700000000005
O      34.559909999999995     42.444279999999985     42.154000000000003
O      34.050510000000003     44.910879999999992     37.365600000000001
O      30.208409999999994     38.707679999999996     36.456100000000006
O      36.260310000000004     43.564079999999997     43.451500000000003
O      34.284509999999990     40.740780000000001     40.486100000000008
O      30.237710000000014     40.640680000000003     40.482500000000002
O      35.636610000000005     46.026471000000008     42.996200000000002
