43

C      42.321999999999989     38.345099999999995     36.262649999999994
C      39.810000000000002     38.695200000000000     39.552050000000001
C      37.497600000000006     39.281599999999997     39.009149999999991
C      34.422600000000003     38.477899999999998     35.598050000000001
C      33.399099999999997     38.197400000000002     36.643049999999995
C      37.659400000000005     39.096600000000002     37.583849999999998
C      36.152399999999993     38.748999999999995     39.362450000000003
C      35.755299999999991     39.018000000000001     35.761249999999997
C      33.857799999999997     38.092300000000009     37.983149999999995
C      36.290799999999997     38.862400000000008     37.110649999999993
C      35.287099999999995     38.428199999999997     38.211949999999995
C      40.510000000000005     38.029100000000000     38.555949999999996
C      43.177199999999999     38.239600000000003     40.797549999999994
C      41.251700000000000     38.816600000000008     39.562549999999995
C      38.516900000000007     39.374800000000008     40.076649999999994
C      39.064199999999985     39.242699999999992     36.775349999999996
C      39.524699999999996     37.756200000000007     36.274450000000002
C      40.240300000000005     37.136800000000008     37.290349999999997
C      42.772700000000000     39.137300000000003     39.672249999999998
C      39.497299999999996     35.635500000000008     37.514050000000005
C      38.781499999999994     39.994700000000009     35.530149999999999
C      41.155900000000003     37.183400000000006     36.147349999999996
H      34.365099999999998     38.443500000000000     34.599950000000000
H      42.507899999999992     38.535800000000002     37.597950000000004
H      43.395799999999994     38.149999999999999     35.946149999999996
H      32.376400000000004     38.189599999999999     36.348649999999999
H      35.964599999999990     38.291300000000007     40.263549999999995
H      36.612499999999997     39.222099999999998     35.049749999999996
H      33.213300000000004     37.837699999999998     38.745849999999990
H      38.273899999999998     38.864800000000002     41.059549999999994
H      39.904300000000006     39.847800000000007     37.219949999999997
H      39.051599999999993     37.320599999999999     35.541749999999993
H      40.127399999999994     34.926400000000001     37.245749999999994
H      39.093199999999996     35.496700000000004     38.509949999999996
H      38.553899999999999     35.655200000000008     36.886350000000000
H      37.726699999999994     40.510300000000001     35.379649999999991
H      39.327399999999997     39.409199999999998     34.731549999999999
H      39.097999999999999     41.073599999999999     35.490649999999995
H      41.486800000000002     36.157800000000002     35.911049999999996
H      42.140199999999993     39.309600000000003     35.780549999999998
H      38.469899999999996     40.468200000000010     40.592449999999992
O      43.600899999999996     39.689400000000006     38.864650000000005
O      43.623599999999996     37.415300000000002     41.400049999999993
