248

C      33.774049999999995     44.318899999999999     38.870749999999987
C      31.709450000000004     35.116799999999998     44.991450000000000
C      32.490550000000006     36.482699999999994     44.617149999999995
C      34.101450000000007     45.064800000000005     35.093449999999997
C      36.591150000000006     43.319500000000005     37.368849999999995
C      34.500850000000000     42.567300000000003     35.406149999999997
C      35.288850000000004     43.528099999999995     36.260449999999999
C      34.502250000000004     44.821899999999999     36.498049999999999
C      34.040950000000002     43.872500000000002     37.469549999999998
C      45.088549999999998     40.874899999999997     43.653349999999989
C      45.668749999999996     39.467600000000004     43.357949999999995
C      45.748649999999998     38.921999999999997     37.305749999999996
C      45.415950000000002     42.012000000000000     42.757249999999992
C      44.878550000000004     40.141599999999997     37.538550000000001
C      45.480850000000004     39.016999999999996     42.006449999999994
C      45.881250000000001     38.478399999999993     38.758749999999999
C      45.420850000000002     42.653800000000004     40.385749999999987
C      45.409950000000002     42.411299999999997     39.080949999999994
C      45.442549999999997     41.564099999999996     41.348649999999999
C      45.384150000000005     40.939300000000003     38.679249999999996
C      45.732050000000008     40.090900000000005     41.040549999999989
C      45.697350000000000     39.806799999999996     39.606349999999999
C      43.662650000000006     42.483500000000006     45.144949999999994
C      44.314850000000007     41.184600000000003     44.811349999999997
C      46.615550000000006     37.163399999999996     43.753049999999988
C      46.170150000000007     38.355800000000002     44.105749999999993
C      45.759050000000002     44.225499999999997     40.793749999999996
C      45.931649999999998     44.819400000000002     38.360549999999996
C      45.779450000000004     44.201999999999998     42.156349999999989
C      45.722749999999998     43.343199999999996     43.236249999999998
C      42.572049999999997     43.053899999999999     45.918650000000000
C      41.294650000000004     42.100300000000004     44.902249999999988
C      41.892949999999999     43.361300000000000     47.179549999999999
C      43.497750000000003     44.014200000000002     45.344849999999994
C      46.260950000000008     44.734200000000001     43.400149999999996
C      36.203150000000008     45.066800000000001     43.571849999999991
C      37.341949999999997     44.940600000000003     44.354449999999993
C      41.407250000000005     40.238500000000002     42.136749999999999
C      36.035450000000004     44.913899999999998     42.181549999999994
C      40.201050000000002     39.734499999999997     42.873549999999994
C      38.631749999999997     44.375000000000000     43.699749999999995
C      37.272350000000003     43.613900000000001     40.215149999999987
C      38.363050000000008     42.780100000000004     39.741049999999994
C      40.961350000000003     43.637699999999995     42.509549999999990
C      40.888750000000002     41.812899999999999     38.499849999999995
C      42.410850000000003     42.996899999999997     42.437949999999994
C      37.221350000000008     44.394900000000007     41.517449999999997
C      41.547850000000004     42.730000000000004     43.558149999999998
C      41.964750000000002     44.020899999999997     41.540649999999999
C      39.661349999999999     42.880799999999994     40.522749999999995
C      41.818650000000005     41.258399999999995     39.601149999999997
C      38.438650000000003     44.228499999999997     42.313949999999991
C      40.411149999999999     41.628699999999995     39.917349999999992
C      39.608850000000004     43.486999999999995     41.796250000000001
C      35.041249999999998     45.726900000000001     44.196349999999988
C      34.834849999999996     45.932500000000005     45.665250000000000
C      36.060350000000000     45.674300000000002     46.255949999999991
C      37.366650000000000     45.197699999999998     45.709049999999991
C      37.036850000000001     42.280699999999996     39.595749999999988
C      36.412549999999996     42.018099999999990     38.163949999999993
C      37.280349999999999     44.799400000000006     37.646449999999994
C      37.407550000000008     42.535600000000002     36.909549999999996
C      41.450750000000006     40.818700000000007     40.827050000000000
C      39.542149999999999     38.635400000000004     43.833449999999992
C      36.204049999999995     46.208900000000000     47.631950000000003
C      37.749049999999997     36.644099999999995     25.364449999999994
C      36.235350000000004     36.375900000000001     25.800049999999995
C      35.469250000000002     37.678899999999999     25.127849999999992
C      39.098550000000003     33.793500000000002     47.519349999999996
C      37.885950000000001     34.229799999999997     48.241849999999999
C      30.989950000000007     39.954899999999995     48.741249999999994
C      30.817650000000008     41.419100000000000     48.687949999999994
C      32.198249999999994     39.378200000000007     48.022349999999996
C      39.727450000000005     34.604399999999998     46.437049999999999
C      37.240049999999997     35.509500000000003     47.841449999999988
C      31.697550000000007     42.215999999999994     47.767449999999997
C      33.638050000000007     39.157699999999991     47.915249999999993
C      35.421450000000007     40.479600000000005     47.385049999999985
C      39.242249999999999     36.834800000000001     45.033749999999998
C      36.988250000000008     37.602800000000002     46.665149999999990
C      32.880450000000003     40.062899999999999     46.938549999999999
C      39.151150000000001     35.898700000000005     46.221550000000001
C      37.832650000000008     36.392300000000006     46.880649999999996
C      38.463049999999996     38.128999999999998     44.773149999999987
C      32.929350000000007     41.497100000000003     47.064349999999990
C      34.409550000000003     41.465800000000002     46.958949999999994
C      37.261850000000003     38.350999999999999     45.447550000000000
C      35.915050000000008     41.722399999999993     46.875549999999997
C      35.119250000000008     39.069699999999997     47.512949999999996
C      35.693449999999999     37.711100000000002     47.548549999999992
C      35.008250000000004     36.669100000000000     48.224349999999994
C      35.946550000000002     35.651200000000003     48.583549999999995
C      39.526750000000007     32.375999999999998     47.896050000000002
C      38.580950000000001     31.608400000000000     48.632249999999992
C      37.199650000000005     31.919500000000003     49.059149999999995
C      36.892850000000003     33.386499999999998     48.930049999999987
C      35.739249999999998     34.264499999999998     49.367449999999991
C      36.034750000000003     35.663300000000007     50.289149999999992
C      30.444750000000006     39.260199999999998     49.938349999999993
C      29.411150000000006     41.403199999999998     50.835749999999983
C      30.214250000000007     42.249899999999997     49.937049999999992
C      41.009749999999997     33.927899999999994     45.981049999999996
C      41.565750000000008     32.991199999999999     47.013249999999999
C      40.736850000000004     31.814800000000002     47.203649999999996
C      32.717150000000004     39.203199999999995     45.551549999999999
C      30.892350000000008     37.970799999999997     50.378649999999986
C      29.627250000000004     39.930599999999998     50.861749999999994
C      31.459550000000007     45.169300000000007     48.601249999999993
C      30.719350000000006     44.236199999999997     49.309449999999991
C      29.939650000000007     43.531099999999995     50.458949999999994
C      31.398450000000004     43.779100000000000     48.034149999999997
C      30.157850000000003     41.692499999999995     47.435350000000000
C      40.571749999999994     30.555800000000001     46.384349999999998
C      40.203449999999997     37.383899999999997     44.005949999999999
C      38.918150000000004     30.045899999999996     48.723649999999985
C      37.287350000000004     42.113699999999994     46.281849999999991
C      32.549850000000006     37.634500000000003     45.499549999999999
C      36.516149999999996     43.490899999999996     28.831449999999997
C      37.174750000000003     42.534400000000005     29.756749999999997
C      37.766749999999995     39.449200000000005     26.357049999999990
C      36.500850000000007     42.959599999999995     27.393850000000000
C      38.109449999999995     41.457999999999998     29.487150000000000
C      37.008050000000004     40.703899999999990     26.239750000000001
C      37.155750000000005     41.591099999999997     27.387049999999995
C      38.099750000000007     40.820700000000002     28.217349999999996
C      35.611449999999998     44.502600000000001     29.307649999999992
C      35.446350000000002     44.856399999999994     30.725049999999992
C      36.383649999999996     44.088200000000001     31.469649999999991
C      37.020449999999997     42.855599999999995     31.168149999999994
C      34.748050000000006     45.154600000000002     28.192149999999998
C      33.957550000000005     45.849500000000006     29.303849999999997
C      33.438650000000003     46.129000000000005     31.827849999999998
C      34.290250000000000     45.794100000000000     30.709849999999996
C      35.654649999999997     43.765299999999996     26.556149999999995
C      34.901350000000008     44.947999999999993     26.780849999999994
C      39.384050000000002     41.303200000000004     30.605849999999997
C      39.295249999999996     41.463600000000000     32.106150000000000
C      37.862150000000000     42.104799999999997     32.334750000000000
C      37.983849999999997     38.214200000000005     25.605749999999997
C      34.375350000000005     46.270499999999998     32.932049999999997
C      36.243350000000007     43.720399999999998     25.201949999999993
H      45.387550000000005     42.769199999999998     36.961649999999999
H      36.813950000000006     42.891300000000001     45.652349999999998
H      40.380049999999997     44.164900000000003     38.711050000000000
H      31.862450000000003     34.523600000000002     45.983149999999988
H      30.595250000000007     35.276600000000002     44.935449999999989
H      31.858250000000005     34.311000000000000     44.214449999999999
H      32.975950000000005     36.783000000000001     43.675750000000001
H      46.289250000000003     45.990399999999994     40.007449999999999
H      34.297049999999999     44.254999999999995     34.471649999999997
H      34.829650000000008     45.893100000000004     36.950449999999996
H      33.245950000000001     42.971199999999996     37.400849999999998
H      45.890149999999998     38.105200000000004     36.479349999999990
H      44.782350000000008     41.232299999999995     37.036249999999995
H      45.209150000000001     38.058999999999997     41.464749999999995
H      46.749550000000006     37.672700000000006     39.104149999999990
H      46.024150000000006     38.553899999999999     45.123749999999994
H      40.156650000000006     42.377300000000005     45.127149999999993
H      42.141649999999998     42.314800000000005     48.182349999999992
H      40.892550000000007     43.106899999999996     47.433849999999985
H      42.212250000000004     44.333500000000001     47.709549999999993
H      44.155749999999998     44.369999999999990     46.143349999999998
H      43.008250000000004     44.548699999999997     44.578849999999989
H      46.614049999999999     45.005099999999999     44.361950000000000
H      44.056950000000001     40.432299999999998     45.602349999999987
H      41.904550000000008     41.178799999999995     45.180649999999993
H      42.241550000000004     39.882599999999996     42.743049999999990
H      35.096550000000001     44.894700000000000     41.763549999999988
H      39.559550000000002     44.238299999999995     44.042849999999994
H      40.108250000000005     41.068899999999999     37.830849999999998
H      34.346150000000002     46.009200000000007     43.516050000000000
H      34.133250000000004     46.561199999999999     46.361549999999987
H      38.276750000000007     45.215999999999994     46.226149999999990
H      37.097749999999998     41.344700000000003     40.370749999999994
H      35.321550000000002     41.905500000000004     38.136350000000000
H      37.608750000000001     42.262200000000007     35.691549999999999
H      39.160950000000007     40.034499999999994     42.440349999999988
H      37.285550000000001     46.236999999999995     47.768449999999994
H      35.232250000000008     46.654700000000005     48.111350000000002
H      40.798649999999995     33.272300000000001     45.071449999999992
H      38.616150000000005     36.174100000000003     25.991049999999994
H      37.942550000000004     36.521000000000001     24.386949999999995
H      35.981650000000002     35.282399999999996     25.939849999999996
H      35.709849999999996     36.814500000000002     26.784949999999995
H      35.738250000000008     38.857299999999995     25.607849999999999
H      36.092349999999996     37.644800000000004     24.216049999999996
H      34.343249999999998     37.901000000000003     25.148249999999997
H      32.302350000000004     46.083699999999993     31.779849999999993
H      42.969750000000005     45.972300000000004     40.518850000000000
H      47.217949999999995     45.336199999999991     36.830149999999996
H      33.963150000000006     37.106700000000004     48.481649999999995
H      36.634049999999995     31.263500000000004     49.623649999999991
H      34.808149999999998     33.981999999999999     49.111649999999997
H      28.782050000000005     41.723299999999995     51.783950000000004
H      42.020750000000000     34.576800000000006     45.733750000000001
H      41.651750000000000     33.649500000000003     47.885549999999995
H      42.535850000000003     32.515600000000006     46.812449999999998
H      41.029550000000008     31.558499999999999     48.197850000000003
H      31.931850000000004     39.819000000000003     44.862349999999999
H      33.730249999999998     39.250900000000001     44.864849999999997
H      31.600750000000005     37.397799999999997     49.625149999999991
H      30.975550000000005     37.456499999999998     51.443849999999998
H      29.362250000000003     39.401300000000006     51.741249999999994
H      31.441550000000007     46.389200000000002     48.747349999999997
H      29.801850000000002     43.752499999999998     51.451049999999995
H      30.286750000000005     41.077399999999997     46.439049999999995
H      29.491550000000004     42.570800000000006     47.463249999999995
H      39.544950000000007     30.619300000000003     45.943349999999988
H      41.409949999999995     30.385199999999998     45.752449999999996
H      40.981550000000006     29.871700000000001     47.080349999999989
H      41.297950000000007     37.036199999999994     43.787549999999996
H      36.735149999999997     39.240899999999996     45.218849999999996
H      37.948150000000005     29.345299999999998     48.699249999999992
H      39.705050000000007     29.544400000000000     48.133149999999993
H      37.697749999999999     41.533500000000004     45.356249999999989
H      38.130950000000006     42.259900000000002     46.980449999999998
H      42.739550000000001     44.599699999999999     39.585649999999994
H      40.741250000000008     43.603499999999997     37.207349999999998
H      39.441450000000003     29.815199999999997     49.654650000000004
H      32.859750000000005     44.823499999999996     34.643549999999998
H      36.416950000000000     41.012099999999990     25.392349999999997
H      36.229850000000006     44.676900000000003     32.488249999999994
H      33.072250000000004     46.219099999999997     28.857650000000000
H      34.537949999999995     45.560999999999993     25.919750000000001
H      40.576049999999995     41.443700000000007     30.314749999999993
H      39.387350000000005     40.211699999999993     30.291049999999995
H      40.017550000000000     42.147199999999998     32.676349999999999
H      39.549350000000004     40.670000000000002     32.852549999999994
H      37.254050000000007     41.361099999999993     32.683349999999997
H      38.247950000000003     43.080500000000001     32.802650000000000
H      35.423850000000002     42.984300000000005     24.725649999999995
H      36.462350000000001     44.509900000000002     24.736049999999999
H      36.981350000000006     42.992500000000007     25.095450000000000
H      39.968150000000009     39.737600000000000     27.964949999999991
N      40.904849999999996     43.364300000000000     38.094849999999994
N      46.082850000000008     45.063699999999997     39.795649999999988
N      45.300850000000004     43.486300000000000     37.906749999999995
N      42.609250000000003     44.963400000000007     40.552650000000000
N      38.813850000000002     39.741500000000002     27.668649999999996
O      33.728250000000003     44.730599999999995     39.861649999999990
O      46.483649999999997     45.685000000000002     37.686749999999996
O      46.961149999999996     36.185400000000001     43.284349999999989
O      37.810150000000007     45.781099999999995     37.644449999999999
O      34.013449999999999     41.822299999999998     34.713949999999997
O      35.531149999999997     35.526299999999999     51.317149999999991
O      32.991150000000005     36.735399999999998     46.243249999999996
O      38.497250000000008     39.267499999999998     25.097649999999991
O      34.862250000000003     46.281700000000001     33.997249999999994
