5

C      38.020799999999994     37.801749999999998     37.941991999999999
H      37.134799999999998     37.034849999999999     37.920191999999986
H      38.826599999999999     37.542149999999999     38.731608000000008
H      37.853200000000001     38.965150000000001     38.520631000000009
H      38.865200000000002     37.685250000000003     37.268391999999992
