5

C      38.262107999999998     38.008749999999992     37.858199999999997
H      37.165902000000003     38.158250000000010     38.217399999999998
H      38.181457999999992     36.989249999999998     37.249200000000002
H      38.175187999999991     39.010750000000002     37.385700000000000
H      38.834097999999997     38.085449999999994     38.750799999999998
