195

C      46.869599999999991     48.941319999999990     26.787904999999995
C      47.665700000000001     50.164719999999996     27.038544999999999
C      48.144700000000000     49.003219999999999     26.226044999999999
C      44.355199999999996     51.073119999999989     25.156164999999994
C      43.861999999999995     50.975219999999993     26.570574999999998
C      38.356749999999998     35.217019999999998     30.584835000000005
C      37.839529999999996     35.498320000000000     32.040235000000003
C      33.450559999999996     31.639519999999997     37.370634999999993
C      39.075220000000002     36.845219999999998     33.820335000000000
C      33.470509999999997     31.256019999999999     38.740334999999995
C      33.818370000000002     32.582920000000001     36.301135000000002
C      37.105730000000001     34.841419999999999     33.170134999999995
C      36.920140000000004     32.783819999999999     40.007934999999996
C      37.886679999999998     33.324719999999999     39.144635000000001
C      38.855959999999996     35.283719999999995     37.348234999999995
C      35.683720000000001     33.713419999999999     35.437135000000005
C      35.600729999999999     32.538220000000003     39.392134999999996
C      39.005510000000001     35.820419999999999     34.873635000000000
C      35.179939999999995     33.217520000000000     36.722434999999997
C      37.808229999999995     35.040820000000004     34.389335000000003
C      37.141379999999998     33.788820000000001     37.984434999999991
C      37.045739999999995     34.394820000000003     35.466735000000000
C      37.641639999999995     34.512119999999996     36.851434999999995
C      35.804349999999999     33.240720000000003     38.063135000000003
C      35.875019999999992     33.940419999999996     33.140034999999997
C      34.947720000000004     33.542520000000003     34.151834999999998
C      33.834789999999998     32.526019999999995     33.999135000000003
C      33.068078999999997     32.375219999999999     35.174434999999995
C      36.983050000000006     35.729720000000000     30.954235000000004
C      35.786980000000000     34.912619999999997     30.802135000000000
C      35.829409999999996     33.515619999999998     31.598534999999998
C      32.345794600000005     30.607619999999997     37.935535000000002
C      38.906859999999995     36.038620000000002     29.466235000000005
C      38.797049999999999     37.624020000000002     29.864934999999996
C      34.788789999999999     35.817520000000002     31.803534999999997
C      39.602409999999992     35.658220000000000     36.188834999999997
C      38.110500000000002     36.398119999999999     38.215134999999997
C      41.751239999999996     45.617020000000004     30.330035000000002
C      40.701970000000003     43.491619999999998     30.913135000000004
C      32.443388999999996     37.905619999999999     29.159835000000001
C      36.387720000000002     42.963919999999995     25.911155000000001
C      38.523479999999999     40.219220000000000     31.239035000000001
C      32.149599999999992     38.557420000000000     27.862045000000002
C      35.340469999999996     41.961220000000004     25.672505000000001
C      38.801289999999995     42.672919999999998     29.488635000000002
C      33.767699999999998     38.244619999999998     29.655435000000004
C      37.235709999999997     42.818020000000004     27.183495000000001
C      33.957780000000000     39.917020000000001     26.172625000000004
C      36.740859999999998     39.304420000000000     29.860835000000002
C      33.472200000000001     39.190320000000000     27.461855000000000
C      37.627880000000005     40.399020000000000     30.052135000000000
C      35.097510000000000     40.827320000000000     26.509864999999998
C      37.806780000000003     41.654719999999998     29.263835000000000
C      34.327089999999998     39.059919999999998     28.581934999999994
C      36.878889999999998     41.741720000000001     27.994444999999992
C      35.690759999999997     39.662720000000000     28.814435000000003
C      35.821830000000006     40.692219999999999     27.824975000000002
C      39.131519999999995     43.830520000000000     28.640435000000004
C      38.126300000000001     43.815320000000000     27.522824999999997
C      40.908529999999999     44.555320000000002     29.860334999999999
C      42.462400000000002     45.498719999999999     31.555835000000002
C      42.352800000000002     44.480119999999999     32.715335000000003
C      41.398920000000004     43.315320000000000     32.234034999999999
C      41.559020000000004     43.661319999999996     33.607235000000003
C      40.336209999999994     44.524719999999995     28.601734999999998
C      39.466299999999997     41.247719999999994     31.617434999999993
C      39.672830000000005     42.426920000000003     30.756835000000002
C      41.834820000000008     47.046519999999994     29.970334999999999
C      40.957989999999995     47.495020000000004     28.952735000000004
C      37.535350000000001     38.176220000000001     29.081335000000003
C      32.487071000000000     25.907100000000000     52.657034999999993
C      32.347920399999992     24.258959999999998     46.043435000000002
C      33.902580000000000     29.409320000000001     52.198535000000000
C      41.806349999999995     47.919119999999999     25.438245000000002
C      39.541350000000001     46.921219999999998     24.951445000000000
C      44.051299999999998     49.289919999999995     26.643295000000002
C      40.821489999999997     46.877119999999998     24.950814999999999
C      40.303379999999997     48.060119999999998     25.579644999999999
C      44.342500000000001     47.989319999999999     25.988334999999999
C      47.763399999999990     51.081219999999995     28.087535000000003
C      42.952799999999996     48.382020000000004     25.975954999999999
C      45.409900000000007     48.612919999999995     26.697984999999996
C      36.333579999999998     44.547919999999998     23.632145000000001
C      36.765370000000004     43.960619999999999     24.929354999999994
C      37.699339999999992     44.970419999999997     24.223535000000005
C      45.065399999999997     47.377720000000004     24.575465000000001
C      37.453119999999998     44.795420000000000     22.840575000000001
C      34.392530000000001     30.950220000000002     41.042135000000002
C      34.340389999999999     31.622819999999997     39.740335000000002
H      49.294799999999995     48.600320000000004     26.148425000000003
H      33.213026999999997     29.918419999999998     49.844535000000000
H      42.884500000000003     51.209219999999995     26.882624999999990
H      36.323999999999998     27.929960000000001     44.079735000000007
H      33.760120000000001     26.706519999999998     51.502834999999997
H      34.493309999999994     29.035420000000002     44.825934999999994
H      37.384779999999999     47.145220000000002     25.307994999999998
H      35.842669999999998     29.647919999999999     46.461934999999997
H      33.655370000000005     31.273220000000002     50.201334999999993
H      44.444800000000001     51.696519999999992     27.214595000000003
H      30.632499999999993     27.162680000000002     48.596834999999999
H      38.481889999999993     34.277819999999998     30.383234999999992
H      37.076750000000004     32.427019999999999     41.132934999999989
H      38.853429999999996     33.363320000000002     39.713434999999997
H      33.496700000000004     31.935719999999996     33.168235000000003
H      32.353602599999995     31.624420000000001     35.273235000000000
H      36.684649999999998     36.790720000000000     30.712035000000000
H      35.442729999999997     34.623019999999997     29.760534999999997
H      35.460239999999999     32.747819999999997     31.160435000000000
H      38.284909999999996     35.701819999999998     28.617434999999993
H      39.947789999999998     35.733420000000002     29.092334999999999
H      39.689529999999998     38.219120000000004     29.551934999999993
H      39.178709999999995     38.014720000000004     30.958435000000001
H      34.129169999999995     35.440320000000000     32.649035000000005
H      35.586979999999997     36.362520000000004     32.322334999999995
H      34.391129999999997     36.451920000000001     31.073134999999994
H      39.492779999999996     34.712420000000002     37.967835000000001
H      40.524270000000001     36.288619999999995     36.639334999999996
H      37.264710000000001     36.642220000000002     37.585835000000003
H      37.959769999999999     35.900720000000000     39.185834999999997
H      38.677489999999999     37.284420000000004     38.450835000000005
H      31.673299999999990     37.657819999999994     29.822035000000000
H      31.283400000000011     38.385919999999999     27.213115000000002
H      34.660589999999999     42.017620000000001     24.789555000000000
H      34.059249999999992     37.818320000000000     30.460435000000004
H      33.614109999999997     40.019120000000001     25.119344999999996
H      36.403260000000003     39.100819999999999     30.828535000000002
H      38.402569999999997     44.501919999999998     26.830204999999999
H      43.101700000000008     46.316020000000002     31.984235000000005
H      43.314300000000003     43.960020000000000     32.732334999999999
H      40.703469999999996     44.120619999999995     34.309334999999990
H      40.372199999999999     45.439119999999996     27.991604999999993
H      38.365029999999997     39.115520000000004     31.671834999999994
H      40.307090000000002     40.894320000000000     32.302635000000002
H      42.159599999999998     47.849119999999999     30.532634999999992
H      36.563189999999999     37.482019999999999     29.255735000000001
H      37.871920000000003     38.306120000000000     27.943405000000006
H      35.313949999999998     30.118220000000001     50.578534999999995
H      32.269399999999997     30.556220000000003     48.530434999999997
H      31.261499999999991     25.177190000000000     47.321035000000002
H      32.386341000000002     30.696820000000002     51.736035000000001
H      34.568600000000004     29.925120000000000     48.361435000000000
H      33.925889999999995     29.985019999999999     46.428734999999996
H      47.140499999999989     52.082619999999999     27.738835000000002
H      34.111949999999993     29.851520000000001     42.919135000000004
H      36.886939999999996     33.236620000000002     31.151434999999999
H      36.203910000000000     27.163119999999999     47.861234999999994
H      32.489970999999997     28.888610000000000     43.855434999999993
H      33.367919999999998     28.043089999999999     49.819234999999992
H      30.914999999999999     30.056620000000002     39.022534999999991
H      35.762319999999995     27.807110000000002     46.157735000000002
H      30.758200000000002     27.079149999999998     52.300534999999996
H      32.592370000000003     26.806729999999998     48.060434999999998
H      46.869000000000000     50.529319999999998     28.967835000000001
H      48.823999999999998     51.245719999999999     28.378534999999999
H      45.562399999999997     48.180920000000000     23.890554999999992
H      46.280900000000003     47.383620000000001     24.777194999999999
H      44.484099999999998     46.645720000000004     23.961755000000004
H      37.988839999999996     45.303019999999997     21.904864999999994
H      34.369520000000001     27.774720000000002     48.098035000000003
H      32.519086000000001     28.511080000000000     48.497134999999993
N      33.580829999999999     27.511580000000002     48.897834999999993
N      34.419879999999999     30.629820000000002     49.653435000000002
N      38.220730000000003     46.375219999999999     25.025945000000000
O      35.836259999999996     28.658969999999997     45.065534999999997
O      44.794899999999998     51.034919999999993     24.089914999999991
O      33.700479999999999     28.710079999999998     43.626334999999997
O      31.078600000000009     30.404019999999996     38.058534999999999
O      39.213160000000002     37.765020000000000     33.250335000000000
O      40.026039999999995     47.497619999999991     28.328634999999991
O      31.306100000000001     25.967590000000001     52.880834999999998
O      31.261000000000006     26.402110000000000     48.016234999999995
O      33.717939999999999     26.012329999999999     52.505934999999994
O      31.218499999999981     24.699760000000001     45.937535000000004
O      33.498809999999999     23.917380000000001     46.142235000000007
O      34.686930000000004     29.390120000000003     47.011334999999995
O      32.790801999999999     29.735720000000001     52.629235000000001
O      35.341719999999995     26.950299999999999     47.330235000000002
O      34.984380000000002     29.191920000000003     51.730535000000003
O      31.972099999999987     29.643320000000003     49.013934999999996
O      34.917980000000000     30.695419999999999     42.075334999999995
S      29.322600000000008     28.316389999999998     52.994235000000010
S      29.821000000000009     30.516320000000000     51.329035000000005
S      31.233700000000013     32.174219999999998     52.618835000000004
S      28.292199999999983     34.168720000000000     49.795934999999993
S      27.475299999999990     30.443919999999999     52.752834999999997
S      27.927499999999984     28.795549999999999     50.450234999999999
S      29.721299999999992     30.761920000000003     54.095135000000006
S      26.978700000000011     30.228619999999999     47.928535000000004
S      28.739700000000010     32.879219999999997     52.404634999999992
S      28.799799999999980     32.384720000000002     47.729234999999996
S      29.603299999999994     30.189219999999999     48.552434999999996
S      26.705200000000001     32.965620000000001     47.888534999999990
S      27.733800000000006     31.543019999999999     50.152134999999994
S      30.315399999999997     32.706620000000001     50.100734999999993
S      28.406899999999993     31.484720000000003     45.979835000000001
