5

C      38.222399999999993     37.805099999999989     38.050364999999999
H      38.702900000000000     37.245300000000000     37.283974999999998
H      37.256999999999998     37.404899999999998     38.173595000000006
H      37.785600000000002     38.754700000000000     37.496085000000008
H      38.743000000000002     38.430799999999984     38.716025000000002
