6

C      37.955900000000000     37.488249999999994     37.519799999999996
C      37.775700000000001     38.489649999999997     38.531300000000002
H      38.606999999999999     36.564850000000000     37.408400000000000
H      37.393000000000001     37.762149999999991     36.647199999999998
H      38.037300000000002     39.009249999999994     39.352800000000002
H      37.403800000000004     39.435150000000000     38.035300000000007
