6

C      38.287450000000000     38.235249999999994     38.544399999999996
C      37.879050000000007     37.949550000000002     37.231400000000001
H      37.979649999999999     39.183949999999996     38.822900000000004
H      38.922149999999995     37.345150000000004     39.313399999999994
H      37.077850000000005     38.726050000000001     36.865500000000004
H      37.926450000000003     36.816050000000004     36.686600000000006
