30

C      37.209749999999993     38.346449999999997     37.379599999999996
C      38.052249999999994     38.124050000000004     38.416100000000007
C      37.629850000000005     37.313950000000006     40.802099999999996
C      36.074650000000005     37.604550000000003     36.898900000000005
C      37.575549999999993     37.046450000000007     39.277899999999995
C      35.686050000000002     36.386550000000007     37.347900000000003
C      36.588149999999999     36.017550000000007     38.589700000000001
C      36.431250000000006     37.023850000000003     39.949200000000005
C      37.725849999999994     39.477650000000011     36.450700000000005
C      40.914949999999997     38.905550000000005     39.347799999999992
C      39.361750000000001     38.730950000000000     38.580299999999994
C      40.326350000000005     39.575050000000005     38.139199999999995
C      35.625050000000002     38.358350000000002     35.396000000000008
C      36.949849999999991     39.057250000000003     35.297400000000003
C      39.046450000000000     40.269950000000009     36.309500000000007
C      34.938549999999992     37.848850000000006     40.064399999999999
C      40.262550000000005     40.554450000000003     37.148900000000005
H      34.002250000000004     36.963950000000004     40.125500000000002
H      37.285549999999994     38.239149999999995     41.407599999999995
H      37.730450000000005     36.227150000000009     41.344000000000001
H      34.776750000000000     35.842450000000007     37.117700000000006
H      35.546450000000000     37.608450000000005     34.592400000000005
H      35.085850000000001     39.194150000000000     35.452900000000000
H      37.241349999999997     39.883150000000001     34.700800000000008
H      39.361249999999998     40.219350000000006     35.140200000000000
H      34.775649999999999     38.841250000000002     40.370899999999999
H      34.698949999999989     38.400250000000000     38.947800000000008
H      41.208849999999991     40.992349999999995     36.747700000000002
H      36.401449999999997     35.007650000000005     39.011600000000001
O      41.997749999999996     38.506449999999994     39.625000000000000
