5

C      38.006399999999999     37.707599999999999     38.374099999999991
H      38.926600000000001     37.189700000000002     38.710799999999999
H      37.981999999999999     38.810299999999998     38.763900000000000
H      38.082900000000002     37.731999999999999     37.236100000000000
H      37.073399999999999     37.294100000000000     38.718100000000000
