37

C      35.617034999999994     35.652569999999997     39.974910000000008
C      34.624634999999998     36.172870000000003     40.966960000000007
C      35.325035000000000     34.860170000000004     41.122420000000005
C      37.564755000000005     38.562970000000007     37.865539999999996
C      36.642995000000006     37.727470000000004     38.837317000000013
C      38.275955000000003     33.890300000000003     36.943240000000024
C      38.493434999999998     37.787570000000002     37.016940000000027
C      36.377197000000002     36.310170000000006     38.797343000000012
C      38.699445000000004     35.213270000000001     36.586339999999993
C      38.287795000000003     36.376070000000006     37.295940000000016
C      37.154455000000006     35.409470000000006     38.097639999999998
C      37.447144999999999     40.059970000000007     38.085840000000012
C      36.621729999999999     40.172170000000001     39.238865000000011
C      36.037763000000005     38.909070000000007     39.557080000000013
C      34.943434999999994     39.230069999999998     40.406520000000015
C      39.661104999999999     38.447970000000005     36.227840000000015
C      39.533355000000000     39.969970000000004     36.566639999999992
C      38.541754999999995     40.783270000000009     37.232939999999999
C      38.403225000000006     42.080669999999998     36.686240000000012
C      39.369475000000008     38.197869999999995     34.709140000000012
C      40.721875000000004     37.537270000000007     35.636240000000001
C      40.804085000000001     40.652970000000003     36.275340000000021
H      34.214134999999999     36.882970000000007     41.483750000000015
H      36.444578999999997     33.285430000000005     38.395240000000022
H      35.567834999999988     34.161360000000002     41.870760000000004
H      38.462344999999992     32.903130000000004     36.527940000000029
H      38.868934999999993     35.431670000000004     35.575240000000001
H      36.535708000000000     41.223869999999998     39.630420000000015
H      39.448404999999994     39.191270000000003     34.129240000000003
H      38.327215000000002     38.151070000000004     34.767540000000011
H      40.603935000000000     36.359870000000001     36.035940000000004
H      41.622875000000001     38.345270000000006     35.489240000000017
H      40.928844999999995     41.598770000000009     36.441740000000003
H      41.785865000000001     40.237569999999998     35.770740000000018
N      37.287095000000008     33.967489999999998     37.841240000000013
O      38.472865000000006     43.096869999999996     36.223040000000019
O      34.353534999999994     39.743669999999995     41.175570000000015
