58

C      38.899049999999995     37.490499999999990     41.412799999999990
C      40.030550000000005     37.408600000000000     34.574500000000000
C      37.612950000000005     37.845799999999997     40.913999999999994
C      38.677750000000003     37.993699999999990     34.538599999999995
C      39.814150000000005     37.158999999999999     40.479900000000001
C      40.833050000000007     37.281500000000001     35.771899999999995
C      37.390750000000004     38.133599999999994     39.467799999999997
C      38.024650000000008     38.710799999999999     35.812700000000000
C      41.151550000000007     37.495399999999997     38.183199999999999
C      39.800249999999998     37.525799999999997     39.072199999999995
C      40.237150000000007     38.029599999999995     36.927099999999996
C      38.487150000000007     38.034499999999994     38.500999999999998
C      38.856549999999999     38.384200000000000     37.030400000000000
C      36.129550000000002     38.316800000000001     38.758800000000001
C      35.578450000000004     38.657099999999993     37.409299999999995
C      38.909649999999999     37.319899999999997     42.842699999999994
C      37.837250000000004     37.453499999999998     43.693199999999997
C      36.526350000000008     37.728699999999996     43.191399999999994
C      36.503050000000009     38.138399999999997     41.717299999999987
C      35.083250000000007     38.350699999999996     41.083099999999995
C      34.961650000000006     38.250200000000000     39.738499999999995
C      41.150550000000003     37.077199999999998     41.365800000000000
C      41.611150000000009     37.236599999999996     42.911099999999998
C      40.191950000000006     36.952900000000000     43.694599999999994
C      38.390850000000007     39.362399999999994     34.297399999999996
C      35.259850000000007     37.811199999999999     36.350099999999998
C      36.355050000000006     38.856999999999992     35.993399999999994
C      42.220149999999997     36.353699999999989     38.134699999999995
C      38.446550000000009     38.031099999999995     33.113299999999995
C      33.706550000000007     38.574099999999994     41.838099999999997
C      41.002050000000004     39.164600000000000     36.514599999999994
C      39.678150000000002     37.904899999999998     32.017199999999995
H      40.141450000000006     36.741199999999999     33.834199999999996
H      41.837450000000004     36.724899999999998     36.017699999999998
H      42.058850000000007     38.118600000000001     38.273899999999998
H      38.146150000000006     37.497299999999996     44.723700000000001
H      35.618250000000003     37.755199999999995     43.809599999999989
H      33.867750000000008     38.339999999999996     39.495399999999997
H      41.315350000000002     35.994999999999990     41.210299999999997
H      41.954350000000005     38.188699999999990     43.169300000000000
H      42.177450000000000     36.527200000000001     43.225699999999996
H      39.807250000000003     36.049499999999995     44.271599999999992
H      40.234750000000005     37.904599999999995     44.263099999999994
H      35.794950000000007     36.720399999999991     36.332200000000000
H      35.903850000000006     39.689999999999998     35.535100000000000
H      34.230750000000008     38.074999999999996     35.711500000000001
H      42.997949999999996     36.570499999999996     37.501999999999995
H      41.979950000000002     37.444600000000001     40.561699999999995
H      41.607050000000008     35.512400000000000     38.127800000000001
H      38.714750000000009     40.487600000000000     33.980999999999995
H      37.457650000000008     38.354499999999987     32.609800000000000
H      42.742350000000009     36.147099999999995     39.066499999999991
H      33.541450000000005     38.118899999999996     42.833399999999997
H      33.271550000000005     39.505699999999990     41.842900000000000
H      40.565950000000001     39.990699999999997     37.208099999999995
H      42.000749999999996     40.007399999999990     36.089500000000001
H      33.002050000000004     38.067799999999998     41.180299999999995
O      40.535550000000008     38.003000000000000     31.276299999999999
