5

C      38.166899999999998     38.102999999999994     38.220499999999994
H      38.324900000000000     37.144800000000004     38.666800000000002
H      39.009600000000006     38.632600000000004     38.722600000000000
H      36.990399999999994     38.602800000000002     38.390099999999997
H      38.471899999999991     38.855199999999996     37.277400000000000
