5

C      38.092849999999999     38.136399999999995     38.336199999999991
H      38.594749999999991     37.835099999999997     37.211500000000001
H      39.044349999999994     38.852199999999996     38.301100000000005
H      36.955650000000006     38.438699999999997     38.237700000000004
H      38.321150000000003     37.147800000000004     38.788499999999999
