59

C      36.700400000000002     36.100074999999990     38.330599999999997
C      37.905600000000007     36.589704999999988     37.696600000000004
C      37.970100000000002     41.433994999999996     38.018100000000004
C      38.241700000000009     41.132094999999993     39.457999999999998
C      35.561000000000007     37.078574999999994     38.475899999999996
C      37.972200000000001     38.048264999999994     37.311500000000002
C      36.867300000000000     40.569094999999997     37.387900000000002
C      36.882700000000000     39.069704999999999     37.842100000000002
C      38.047600000000003     38.784344999999995     38.597000000000001
C      36.670400000000001     34.778675000000000     39.085400000000000
C      37.707499999999996     33.768364999999996     39.004599999999996
C      38.790599999999998     34.416334999999997     38.119300000000003
C      39.005300000000005     35.661825000000000     37.417700000000004
C      38.855100000000007     42.487895000000002     37.519900000000007
C      38.667200000000008     43.722895000000001     38.430899999999994
C      38.865300000000005     43.400295000000000     39.853800000000000
C      38.599100000000007     42.055794999999996     40.349100000000007
C      35.410600000000002     34.551665000000000     39.809200000000004
C      35.273099999999999     33.150804999999998     40.196300000000001
C      36.333900000000000     32.081865000000001     40.250600000000006
C      37.514099999999999     32.367774999999995     39.466499999999996
C      34.257700000000000     36.770215000000000     39.163899999999991
C      34.170800000000000     35.405524999999990     39.711200000000005
C      38.750200000000007     38.470624999999998     36.137700000000002
C      40.335200000000000     37.621824999999994     36.435100000000006
C      40.326599999999999     36.204464999999992     36.820400000000006
C      35.592300000000009     38.460394999999998     38.049999999999997
C      35.888000000000005     40.864494999999991     36.470900000000000
C      39.564700000000002     42.851794999999989     36.336900000000000
C      41.794600000000003     35.888434999999994     37.448500000000003
C      34.893200000000007     40.078494999999990     35.715400000000002
C      39.504999999999995     33.422494999999998     37.359500000000004
H      33.952600000000004     40.663794999999993     35.887000000000000
H      38.720799999999997     44.806294999999999     38.204000000000008
H      39.140100000000004     44.148194999999987     40.804199999999994
H      38.913800000000009     41.875594999999997     41.391199999999998
H      34.176200000000009     33.118154999999994     40.733800000000002
H      35.867400000000004     31.193704999999998     40.554600000000008
H      38.197500000000005     31.599515000000000     39.201700000000002
H      33.513700000000000     37.542204999999996     39.200500000000005
H      33.246099999999998     35.206824999999995     40.204999999999998
H      38.623599999999996     37.876794999999994     35.272500000000001
H      38.979200000000006     39.515494999999987     36.038899999999998
H      40.969000000000008     37.896814999999997     35.689900000000002
H      40.383700000000005     38.377704999999992     37.277100000000004
H      40.652400000000000     35.504674999999999     35.971900000000005
H      34.736000000000004     39.080234999999988     38.336700000000008
H      34.942800000000005     40.501494999999991     34.608800000000002
H      36.086399999999998     41.869894999999993     35.973700000000001
H      40.766999999999996     42.905794999999991     36.541899999999998
H      39.436700000000002     42.312394999999995     35.305100000000003
H      41.841200000000001     34.726464999999997     37.727100000000007
H      42.753900000000002     35.910814999999999     36.940899999999999
H      41.583300000000008     36.500064999999992     38.386000000000003
H      39.714600000000004     43.994594999999997     36.425700000000006
H      35.101200000000006     38.978824999999986     35.719400000000007
H      39.412999999999997     39.492595000000001     40.466400000000007
N      38.684799999999996     39.754194999999989     39.589900000000000
O      39.593900000000005     32.418774999999997     36.768600000000006
