54

C      36.945979999999999     38.173099999999991     35.689049999999995
C      35.673560000000009     38.097299999999997     36.522349999999989
C      40.131660000000004     38.375899999999994     39.462750000000000
C      39.158040000000007     39.107099999999996     40.174450000000007
C      38.269890000000004     37.772799999999997     36.257249999999999
C      36.012250000000009     38.397500000000001     37.986249999999998
C      39.763560000000005     38.076099999999997     37.869850000000000
C      37.848990000000008     39.250200000000000     39.600250000000003
C      38.374290000000009     37.766799999999996     37.686650000000000
C      37.483200000000004     38.736899999999999     38.346350000000001
C      36.682870000000008     38.188499999999991     34.244049999999987
C      35.428010000000008     38.514799999999994     33.487350000000006
C      34.287080000000003     38.652400000000000     34.264949999999999
C      34.353290000000008     38.771699999999996     35.887850000000000
C      41.377960000000009     38.186999999999998     40.163150000000002
C      41.700760000000002     38.758600000000001     41.430549999999997
C      40.865360000000003     39.764400000000002     42.066649999999996
C      39.684960000000004     39.911699999999989     41.352450000000005
C      37.997859999999996     36.464900000000000     38.478049999999996
C      36.475870000000008     35.828299999999992     38.117549999999994
C      35.432230000000004     36.959499999999998     37.429349999999999
C      36.132620000000003     34.996499999999997     39.423950000000005
C      37.446309999999997     37.030700000000003     33.524950000000004
C      34.988520000000008     40.025500000000001     33.740049999999997
C      40.926259999999999     38.332599999999992     37.108050000000006
C      41.524760000000008     40.613499999999995     43.102450000000005
H      41.696860000000008     41.588999999999999     42.812649999999991
H      35.258800000000008     39.125500000000002     38.304450000000003
H      35.067950000000010     38.163699999999999     32.379649999999998
H      33.657750000000007     39.641700000000000     36.290850000000006
H      42.448760000000000     37.905400000000000     39.846050000000005
H      42.694759999999995     38.648199999999996     41.848050000000001
H      39.148589999999999     40.722000000000001     41.981350000000006
H      37.820900000000009     36.767299999999999     39.556449999999998
H      38.708680000000001     35.607099999999996     38.524349999999998
H      36.758510000000001     35.412999999999997     37.113450000000000
H      34.459450000000004     37.007800000000003     37.805749999999989
H      35.541190000000007     34.143599999999999     38.901150000000001
H      35.534730000000010     35.476700000000001     40.281450000000007
H      36.766960000000005     34.634799999999998     40.234049999999996
H      38.295169999999999     37.287999999999997     32.849149999999995
H      36.579110000000007     36.593200000000003     32.753749999999997
H      37.704610000000002     36.245099999999994     34.220450000000000
H      33.556390000000007     38.055599999999998     33.737449999999995
H      34.380890000000008     40.483899999999998     32.911150000000006
H      35.667320000000004     40.626999999999995     34.381349999999998
H      40.435359999999996     39.287399999999998     36.636750000000006
H      41.785260000000001     38.448099999999997     37.873049999999992
H      39.025460000000010     37.691000000000003     35.635949999999994
H      42.370159999999998     40.120199999999990     43.530449999999988
H      40.578560000000010     41.154899999999991     43.620350000000002
H      37.076329999999999     41.856400000000001     39.439250000000001
H      33.305240000000005     38.344900000000003     36.094949999999997
S      36.874580000000009     40.772100000000002     40.253550000000004
