8

C      38.200649999999996     37.613749999999996     38.721949999999993
C      37.770850000000010     38.276249999999997     37.230050000000006
H      39.287849999999992     38.004249999999999     38.694850000000002
H      38.313650000000010     36.481550000000006     38.844349999999999
H      37.952150000000003     38.295750000000005     39.656649999999999
H      38.170550000000006     39.518449999999994     37.263850000000005
H      37.674450000000007     37.597650000000002     36.343350000000001
H      36.712150000000008     38.636850000000003     37.163450000000005
