6

C      37.657149999999994     37.550599999999996     38.567000000000007
C      38.647050000000000     38.262199999999993     37.966900000000010
H      36.603349999999999     38.082299999999996     38.733000000000004
H      37.651750000000000     36.425300000000000     38.668400000000005
H      38.463650000000001     39.574700000000000     38.013600000000011
H      39.396650000000001     37.747299999999996     37.266999999999996
