34

C      38.068899999999999     38.399749999999997     39.008299999999991
C      36.708600000000004     38.097550000000005     39.347099999999998
C      36.356900000000010     38.895750000000000     34.682500000000005
C      38.534800000000004     38.862349999999999     37.615299999999991
C      35.832500000000010     38.033549999999998     38.186099999999996
C      37.630600000000001     39.362050000000004     35.215999999999994
C      35.510500000000008     38.263550000000002     35.621899999999997
C      37.690400000000011     38.806249999999999     36.602699999999999
C      36.187900000000013     38.405450000000002     36.906699999999987
C      39.091300000000004     37.794850000000004     39.894599999999997
C      38.713999999999999     36.998550000000002     41.091499999999996
C      37.182700000000011     36.546750000000003     41.149900000000002
C      36.285100000000014     37.281249999999993     40.376599999999996
C      40.490000000000009     38.286650000000002     40.026100000000000
C      41.399700000000010     37.449950000000001     40.839599999999990
C      41.252100000000013     36.543050000000001     41.894800000000004
C      39.676300000000012     36.251080000000002     41.885199999999998
C      40.063500000000005     38.862649999999995     37.092099999999988
C      38.523200000000003     40.044649999999997     34.386499999999998
C      33.904400000000010     38.029650000000004     35.279399999999995
H      36.060600000000008     38.763849999999991     33.647400000000005
H      34.940100000000001     37.640950000000004     38.436700000000002
H      37.088900000000010     35.930360000000000     42.136399999999995
H      35.317600000000013     36.977650000000004     40.438699999999997
H      40.898800000000008     39.253250000000001     39.729299999999995
H      42.588600000000000     37.578450000000004     40.887599999999992
H      42.282000000000011     36.225180000000002     42.099400000000003
H      39.295600000000007     35.630549999999999     42.750900000000001
H      38.061600000000013     40.117949999999993     33.249099999999999
H      33.520800000000008     38.989249999999998     34.865899999999996
H      33.411400000000000     37.672249999999998     36.159400000000005
H      33.768800000000013     37.203349999999993     34.285399999999996
H      39.520100000000014     40.369450000000001     34.657299999999992
O      41.101300000000009     38.778350000000003     36.727000000000004
