5

C      38.196949999999987     37.846909999999994     37.848999999999990
H      38.841449999999995     37.249079999999999     37.473799999999997
H      38.293850000000006     38.351360000000000     38.906700000000001
H      38.077849999999998     38.750920000000001     37.093299999999999
H      37.158550000000005     37.335950000000004     37.778499999999994
