41

C      36.769949999999994     38.215550000000007     39.340699999999998
C      38.166950000000000     38.728750000000012     39.106499999999997
C      38.888249999999999     40.953550000000014     34.959400000000002
C      35.778049999999993     38.877849999999995     38.499900000000004
C      38.644149999999996     39.466950000000004     38.019900000000007
C      35.448650000000001     40.578249999999997     36.386200000000002
C      37.715549999999993     40.821550000000009     35.871100000000006
C      36.223950000000002     39.950950000000013     37.529500000000006
C      37.641850000000005     40.089050000000007     37.151700000000005
C      36.347750000000005     37.264150000000008     40.515899999999995
C      37.430649999999986     36.974750000000007     41.437099999999994
C      38.746349999999993     37.573750000000011     41.350400000000000
C      39.060749999999999     38.680250000000001     40.358500000000006
C      34.976849999999999     36.667550000000013     40.610900000000001
C      34.529550000000000     35.528650000000006     41.362800000000000
C      35.495249999999999     35.264950000000006     42.416999999999994
C      36.843850000000003     35.763350000000010     42.282400000000003
C      34.230149999999995     37.350950000000005     39.579200000000000
C      34.478949999999998     38.511650000000010     38.712600000000002
C      41.026349999999994     39.555750000000010     41.343899999999998
C      39.987750000000005     37.331050000000012     42.192700000000002
C      40.793449999999993     38.471150000000002     42.291700000000006
C      40.049449999999993     39.695150000000005     40.341600000000000
C      36.378450000000001     41.121050000000004     35.422400000000003
C      38.694249999999997     41.011850000000003     33.511600000000001
H      39.690650000000005     39.628750000000004     37.845000000000006
H      34.410950000000000     40.405150000000006     36.308100000000003
H      33.507949999999994     35.093649999999997     41.337100000000007
H      35.419049999999999     34.431950000000001     43.021200000000007
H      37.751249999999999     35.476749999999996     42.635799999999996
H      33.489350000000002     36.550350000000002     39.425500000000007
H      33.825349999999986     38.850650000000009     37.983100000000007
H      40.118949999999998     36.412650000000006     42.701100000000004
H      41.605850000000004     38.695450000000008     43.090399999999995
H      40.250249999999994     40.534050000000015     39.651299999999999
H      39.767649999999989     40.826850000000015     35.464500000000001
H      36.104849999999999     41.568049999999999     34.580400000000004
H      39.571449999999999     40.744550000000011     32.909600000000005
H      37.790849999999992     41.528450000000014     33.221700000000006
H      42.510649999999998     40.500350000000005     40.556700000000006
O      42.153549999999996     40.140350000000005     41.588600000000000
