19

C      38.572899999999997     38.734584999999996     37.695399999999992
C      36.287400000000005     39.421624999999992     37.794000000000011
C      37.487800000000007     39.319334999999995     37.026600000000002
C      36.068200000000004     38.277448600000000     38.639500000000012
C      37.133000000000003     37.532564999999991     39.478099999999998
C      38.362500000000004     37.925564999999992     38.981800000000007
C      39.767400000000002     37.899964999999995     36.967000000000013
C      36.577400000000004     36.551364999999990     40.470799999999997
C      37.579200000000007     39.632594999999995     35.586500000000001
H      34.971600000000002     37.609264999999979     39.079900000000009
H      39.244700000000002     37.398165000000006     39.341800000000006
H      40.067700000000002     36.715665000000001     37.495099999999994
H      39.316899999999997     37.814064999999985     35.888600000000011
H      41.028399999999998     38.433690999999982     37.097200000000001
H      37.425200000000004     35.820665000000005     40.686400000000006
H      35.527699999999996     36.437364999999986     40.759799999999998
H      36.380899999999997     37.056764999999999     41.467500000000001
H      35.709400000000002     40.179334999999995     37.094000000000008
O      37.472400000000000     39.416644999999988     34.532499999999999
