70

C      40.656699999999987     37.505179999999996     38.495049999999992
C      40.405899999999988     36.430080000000004     39.539749999999998
C      37.668199999999999     37.029180000000004     35.611050000000006
C      37.349999999999994     38.022080000000010     36.826750000000004
C      40.954799999999992     37.115380000000009     37.038049999999998
C      39.602400000000003     35.368780000000008     38.803250000000006
C      39.123400000000004     37.086480000000002     35.055450000000008
C      38.164099999999991     35.652080000000005     38.066150000000007
C      39.934399999999997     36.317580000000007     36.326250000000002
C      39.480500000000006     35.359380000000009     37.334249999999997
C      40.401100000000000     38.856180000000002     38.881149999999991
C      39.899500000000003     39.197680000000005     40.070250000000001
C      39.760799999999989     38.118780000000008     41.072649999999996
C      40.129099999999994     36.675280000000008     40.952849999999998
C      36.546999999999997     37.351680000000009     34.430650000000000
C      35.996200000000002     38.671680000000002     36.743449999999996
C      37.629599999999996     37.236680000000007     38.087549999999993
C      36.248300000000000     37.606380000000009     37.703050000000005
C      40.950199999999995     39.971280000000007     37.900450000000006
C      41.031800000000004     41.335280000000004     38.385549999999995
C      40.177300000000002     41.649080000000005     39.558650000000000
C      39.670800000000000     40.662979999999997     40.341850000000008
C      41.376099999999994     38.176679999999998     36.115949999999998
C      41.017200000000003     39.469479999999997     36.500050000000002
C      39.333799999999997     34.135680000000008     39.636849999999995
C      38.629400000000004     34.792580000000008     41.064750000000004
C      39.620900000000006     35.653480000000009     41.889550000000000
C      39.911400000000000     35.668180000000007     34.709150000000008
C      36.594899999999996     35.989680000000007     34.935050000000004
C      40.506699999999995     34.653780000000005     42.699050000000000
C      36.199299999999994     36.348380000000006     33.288150000000002
C      42.281000000000006     36.155480000000004     37.215249999999997
C      34.199739999999998     35.303480000000008     35.593550000000008
C      39.065200000000004     34.420380000000002     34.215950000000007
C      35.657579999999996     38.405079999999998     34.895350000000008
C      36.304699999999997     37.702580000000005     39.196749999999994
H      35.739670000000004     35.675779999999996     37.222650000000002
H      37.279700000000005     35.272280000000002     38.620750000000001
H      39.361000000000004     38.430979999999998     42.029150000000001
H      35.901799999999994     39.726280000000010     37.171749999999989
H      41.181500000000000     42.049280000000003     37.571650000000005
H      39.939899999999994     42.740979999999993     39.836749999999995
H      39.585899999999995     41.040880000000008     41.319350000000000
H      41.880299999999991     37.937880000000007     35.052050000000008
H      41.188699999999997     40.499680000000005     35.852750000000000
H      38.614300000000000     33.259020000000007     39.297749999999994
H      40.056600000000003     33.278670000000005     39.754049999999992
H      38.301000000000002     33.846500000000006     41.660550000000001
H      37.840500000000006     35.377980000000001     40.660849999999996
H      38.922700000000006     36.145080000000007     42.556849999999997
H      41.030399999999986     35.678580000000004     34.436949999999996
H      39.819400000000002     33.881780000000006     43.291049999999998
H      41.200799999999987     35.269280000000002     42.998649999999998
H      41.265599999999992     34.282080000000008     42.051349999999999
H      39.651999999999987     38.066980000000008     34.775350000000003
H      37.032499999999999     35.858480000000007     32.708950000000002
H      35.197800000000001     36.027480000000004     33.218050000000005
H      42.488699999999994     35.714180000000006     36.275950000000009
H      42.645999999999987     35.850980000000007     38.251750000000001
H      42.852199999999996     37.088380000000008     37.300149999999988
H      33.147800000000004     35.417480000000005     36.166049999999998
H      33.958929999999995     35.342480000000002     34.443250000000006
H      38.245699999999999     35.040780000000005     33.835549999999998
H      38.198399999999992     34.038180000000004     34.881650000000008
H      39.750299999999996     33.646630000000009     33.827150000000003
H      36.059799999999996     39.324980000000004     34.618049999999997
H      34.581800000000001     38.116580000000006     34.943849999999998
H      36.776799999999994     38.556979999999996     39.521150000000006
H      35.310000000000002     37.263780000000004     39.465950000000007
N      35.519790000000000     35.686680000000003     36.070049999999995
