5

C      37.796399999999991     37.930450000000000     37.992799999999995
H      37.354500000000002     37.597350000000006     37.215999999999994
H      37.350200000000001     38.867849999999997     38.356099999999991
H      38.649799999999999     37.138650000000005     37.803500000000000
H      37.368900000000004     37.132150000000003     38.784000000000006
