5

C      38.236549999999994     38.073899999999995     38.127284999999986
H      37.231049999999996     38.194899999999997     38.168215000000004
H      38.743049999999997     38.351599999999998     37.200524999999999
H      38.681950000000001     37.146999999999998     38.161834999999996
H      38.768950000000004     38.853000000000002     38.799475000000001
