63

C      36.737499999999990     41.247099999999989     34.129549999999995
C      36.419699999999999     36.713000000000008     41.365249999999989
C      37.261699999999998     35.529600000000002     41.039949999999997
C      35.858499999999999     41.199799999999996     35.371249999999996
C      39.541199999999996     34.448000000000000     35.873449999999998
C      37.665899999999993     40.210099999999997     33.709949999999999
C      36.027499999999996     37.574300000000008     40.201349999999998
C      39.184300000000000     35.327900000000000     34.779449999999997
C      37.947799999999994     35.162799999999997     39.825750000000006
C      38.946300000000001     34.659599999999998     37.264650000000003
C      38.260199999999990     37.818100000000001     34.247950000000003
C      36.010100000000001     38.013300000000001     37.793349999999997
C      37.597799999999999     39.077100000000002     34.665750000000003
C      36.448599999999999     37.163899999999998     38.844449999999995
C      38.445899999999995     36.673900000000003     35.110149999999997
C      37.391999999999996     35.962000000000003     38.719650000000009
C      36.399600000000000     39.072400000000002     35.690850000000005
C      38.058599999999991     35.881399999999999     37.396750000000004
C      36.741999999999990     37.949199999999990     36.553649999999998
C      37.906099999999995     36.907399999999996     36.306150000000002
C      38.899000000000001     34.139400000000002     39.583549999999995
C      39.326999999999998     33.678899999999999     38.258649999999989
C      36.657899999999998     42.510499999999993     33.282750000000000
C      36.110799999999998     43.754599999999996     33.686450000000001
C      35.437100000000001     43.687799999999996     34.997449999999994
C      35.482599999999998     42.534599999999998     35.783650000000002
C      35.515999999999998     36.659500000000008     42.434750000000001
C      36.169899999999998     36.173299999999998     43.623049999999999
C      37.382599999999989     35.398400000000009     43.508150000000001
C      37.941499999999998     34.953899999999997     42.231050000000003
C      39.233199999999989     34.256600000000006     42.039149999999992
C      39.491299999999988     33.504300000000001     40.886649999999996
C      40.174799999999998     33.299400000000006     35.290450000000000
C      40.561199999999999     33.280999999999999     33.957749999999997
C      40.227599999999995     34.205999999999996     32.923049999999996
C      39.251999999999995     35.257000000000005     33.315950000000001
C      39.977699999999999     32.076300000000003     36.080850000000005
C      40.322799999999994     32.586399999999998     37.733250000000005
C      38.293299999999995     36.143600000000006     32.386050000000004
C      38.843599999999995     37.528300000000002     32.774850000000001
H      38.498199999999997     40.328400000000002     33.005749999999999
H      35.061699999999995     38.229300000000009     40.101549999999996
H      35.125599999999999     38.688299999999998     37.869050000000009
H      37.442099999999996     42.945499999999996     32.524650000000001
H      36.418900000000001     44.621099999999998     33.336649999999999
H      35.319600000000001     44.677999999999997     35.353549999999998
H      34.864599999999996     42.596800000000002     36.613350000000004
H      34.724499999999999     37.442800000000005     42.371150000000000
H      35.844299999999997     36.378700000000009     44.804549999999999
H      37.636199999999995     35.023400000000002     44.421049999999994
H      39.994499999999995     33.834800000000001     42.772949999999994
H      40.104399999999998     32.740099999999998     40.886249999999997
H      41.086699999999993     32.559100000000001     33.361449999999998
H      40.348099999999988     33.964700000000001     31.880650000000003
H      40.841699999999996     31.474300000000003     35.713850000000001
H      39.179099999999998     31.321999999999999     35.980849999999997
H      40.438199999999995     31.712499999999999     38.508550000000007
H      41.275500000000001     32.987600000000000     37.602549999999994
H      38.091299999999997     35.889099999999999     31.195450000000001
H      37.436699999999995     36.098100000000002     32.810650000000003
H      38.341699999999996     38.136899999999997     32.167849999999994
H      39.840299999999999     37.658600000000007     32.561450000000001
N      35.467599999999997     40.031400000000005     35.923349999999999
