98

C      33.618799999999993     40.488619999999983     37.882799999999989
C      32.420700000000004     38.858620000000002     36.489199999999997
C      30.119099999999996     42.202020000000005     36.807199999999995
C      30.526100000000007     40.899220000000000     36.183099999999996
C      32.213000000000001     42.591186999999991     37.883899999999997
C      31.813499999999998     37.751519999999999     35.769599999999997
C      30.965200000000003     43.128683999999993     37.559700000000007
C      30.377100000000006     37.740819999999999     35.361400000000003
C      32.466699999999996     41.243419999999986     37.373100000000008
C      31.795499999999997     40.216220000000007     36.631299999999996
C      34.701900000000002     40.914119999999983     39.117599999999996
C      36.046900000000001     39.606620000000007     37.180000000000007
C      33.625000000000000     39.147520000000000     37.313400000000001
C      28.752000000000002     42.347020000000001     36.216600000000000
C      28.502000000000002     41.189019999999985     35.430000000000007
C      29.510800000000003     40.109719999999996     35.487400000000008
C      29.265800000000006     38.674719999999979     34.986699999999999
C      33.718799999999995     41.917019999999994     39.656500000000008
C      35.645100000000006     41.883420000000001     38.250399999999999
C      36.508100000000006     40.975019999999986     37.536400000000000
C      37.417600000000000     39.935320000000004     36.840599999999995
C      32.866100000000003     43.002391000000003     39.149999999999991
C      34.967700000000001     41.481319999999982     40.434999999999988
C      35.106699999999996     40.519119999999987     41.710099999999997
C      36.201100000000004     42.313019999999980     40.942200000000000
C      38.646800000000006     39.329719999999995     36.066000000000003
C      31.955400000000004     36.247320000000002     35.483399999999989
C      36.306900000000006     37.340019999999996     34.284599999999998
C      37.819700000000005     37.676019999999994     34.264600000000002
C      44.489699999999999     38.847120000000004     38.001599999999996
C      45.087100000000000     33.698519999999995     39.146499999999989
C      36.323399999999992     35.874420000000001     34.531300000000002
C      45.281700000000001     37.681319999999985     38.559899999999999
C      45.610900000000008     34.989519999999999     39.126700000000000
C      43.432899999999989     38.392619999999994     37.031800000000004
C      39.061600000000006     37.114320000000006     34.636099999999999
C      43.674900000000001     33.600220000000000     38.806600000000003
C      37.512500000000003     34.242419999999989     36.169300000000007
C      39.471200000000003     32.967819999999996     37.283500000000004
C      40.833199999999998     33.038119999999999     37.793499999999995
C      41.757599999999996     36.638620000000003     36.728099999999998
C      37.467299999999994     35.476020000000005     35.325000000000003
C      44.920300000000005     36.294820000000001     38.701899999999995
C      42.851300000000002     37.011619999999994     37.501999999999995
C      38.866399999999999     34.046819999999990     36.589200000000005
C      38.937700000000000     35.700219999999987     35.136099999999999
C      42.970900000000007     34.622919999999993     38.095200000000006
C      41.598199999999999     34.206320000000005     37.585099999999997
C      41.060600000000001     35.393119999999996     36.697400000000002
C      43.593200000000003     35.975719999999995     38.044399999999996
C      39.767400000000002     35.041619999999995     36.068100000000001
C      35.169800000000002     38.200519999999997     33.924099999999996
C      35.457799999999999     39.596119999999999     33.860200000000006
C      36.748699999999999     40.207620000000006     34.109400000000008
C      37.957199999999993     39.182720000000003     34.477800000000002
C      44.804299999999998     40.185519999999997     38.453000000000003
C      46.059400000000004     40.613420000000005     39.060100000000006
C      46.753299999999996     39.396020000000007     39.203000000000003
C      46.589900000000007     37.979920000000007     39.327200000000005
C      47.651699999999998     40.898420000000002     39.005200000000002
H      30.589900000000000     43.875579999999999     38.060899999999990
H      29.897300000000001     36.756619999999998     35.656000000000006
H      31.575800000000001     35.968119999999999     34.488600000000005
H      27.973000000000006     43.273802000000003     36.344600000000000
H      27.477300000000000     41.242019999999997     35.265400000000000
H      28.357599999999998     38.522220000000004     34.390900000000002
H      35.573399999999999     42.987971000000002     38.094499999999996
H      32.410900000000005     43.763069999999999     39.973799999999997
H      34.710799999999999     40.992120000000000     42.544300000000007
H      36.164800000000007     40.196320000000000     42.225300000000004
H      34.909399999999998     39.457620000000006     41.608800000000002
H      37.389199999999995     41.951220000000006     40.661200000000008
H      36.307600000000001     43.369327000000013     40.578699999999998
H      36.285100000000000     42.399720000000002     42.077399999999997
H      39.316599999999994     38.590919999999997     36.407700000000006
H      39.327599999999997     40.109020000000001     36.226700000000008
H      31.476300000000002     35.615219999999994     36.383300000000006
H      32.982000000000006     36.134320000000002     35.448300000000003
H      35.048099999999998     37.912920000000000     36.481600000000000
H      45.622000000000007     32.750019999999999     39.280900000000003
H      35.247699999999995     35.499020000000002     34.669100000000000
H      46.517900000000004     35.021119999999996     39.612299999999991
H      42.492399999999996     39.020619999999994     36.843400000000003
H      43.844299999999990     38.342720000000000     36.025700000000001
H      40.054099999999998     37.592619999999997     34.797600000000003
H      43.327300000000001     32.759219999999992     38.999700000000004
H      36.696399999999997     33.638519999999993     36.282200000000003
H      39.005600000000008     32.124420000000001     37.283799999999999
H      41.055600000000005     32.127119999999998     38.274599999999992
H      41.082799999999999     37.463719999999981     36.339599999999990
H      34.229899999999994     37.960319999999996     33.590100000000007
H      34.668200000000006     40.516119999999987     33.644900000000007
H      36.922099999999993     41.051419999999993     33.455699999999993
H      38.677700000000009     39.404820000000001     33.663600000000002
H      43.933299999999996     40.901319999999998     38.332499999999996
H      47.179099999999998     36.970219999999998     39.648599999999988
N      34.998199999999997     38.611720000000005     37.212699999999998
O      48.522700000000000     41.493219999999994     39.501300000000001
