100

C      35.604599999999991     36.503049999999988     35.501030000000000
C      34.496899999999997     36.725049999999996     34.454059999999998
C      37.703699999999998     40.368949999999998     34.179559999999995
C      36.931999999999995     37.103349999999992     35.529349999999994
C      34.302000000000000     38.090050000000005     33.968125999999998
C      38.289299999999990     39.063049999999990     34.540740000000000
C      36.258999999999993     40.120750000000001     33.971658000000005
C      36.935600000000001     38.212249999999997     34.522689999999997
C      35.648999999999994     38.723249999999993     33.986289999999997
C      35.507199999999997     35.502049999999997     36.646749999999997
C      34.324299999999994     34.677049999999994     36.525000000000006
C      33.539600000000000     34.587950000000006     35.386160000000004
C      33.701399999999992     35.547250000000005     34.315380000000005
C      36.655099999999990     35.328450000000004     37.621510000000001
C      36.559399999999997     34.579449999999994     38.932759999999988
C      35.112499999999997     33.925449999999998     38.905270000000002
C      34.121400000000001     33.659549999999996     37.754270000000005
C      38.297699999999999     36.670349999999999     36.394220000000004
C      38.091799999999999     35.596149999999994     37.270189999999999
C      33.109299999999998     32.747450000000001     37.558650000000000
C      38.698199999999993     40.242549999999994     32.997749999999996
C      39.766799999999996     38.494949999999989     34.562550000000002
C      32.533799999999999     33.405349999999999     35.269930000000002
C      37.863000000000000     41.488249999999994     35.176860000000005
C      35.851999999999997     33.709149999999994     40.133919999999989
C      38.497399999999992     34.252949999999998     36.422749999999994
C      39.839199999999998     33.641349999999989     37.184799999999996
C      42.494499999999995     41.463250000000002     36.408339999999995
C      42.527700000000003     39.921149999999997     36.603079999999991
C      38.125399999999992     36.801349999999999     43.450350000000000
C      40.296999999999990     40.781449999999992     38.508389999999991
C      41.689900000000002     39.114849999999990     37.442300000000003
C      37.977699999999992     38.240849999999995     43.140349999999998
C      40.447600000000001     36.380049999999997     40.823430000000002
C      40.511299999999999     37.071650000000005     39.493559999999988
C      38.742599999999996     40.389750000000006     40.520619999999994
C      39.570399999999999     36.968549999999993     41.887299999999996
C      39.056399999999989     41.348650000000006     39.175420000000003
C      39.163199999999996     38.342749999999995     41.977580000000003
C      40.759700000000002     39.381950000000003     38.621759999999995
C      40.132599999999989     38.581749999999985     39.654820000000001
C      39.493999999999993     39.157049999999998     40.856679999999997
C      41.850499999999990     37.627949999999998     37.390049999999988
C      41.197200000000002     36.556349999999995     38.174710000000005
C      39.685200000000002     42.259449999999987     38.528559999999999
C      38.057899999999997     42.329750000000004     38.632919999999999
C      42.270699999999998     42.222849999999994     35.258120000000005
C      43.543299999999995     39.263749999999987     35.933749999999989
C      43.702099999999994     37.888750000000002     35.673609999999996
C      42.783200000000001     37.012550000000005     36.352950000000007
C      42.895299999999999     42.434950000000001     37.692719999999994
C      41.641399999999997     43.375649999999993     37.335930000000005
C      40.108100000000000     42.774349999999998     37.097290000000001
C      40.835400000000000     34.745949999999993     37.575659999999999
C      36.879599999999989     43.029549999999986     38.301330000000007
H      38.261499999999998     38.904550000000000     43.978949999999998
H      32.657699999999998     31.586650000000002     38.079830000000001
H      33.486899999999999     38.598249999999993     33.598434999999995
H      35.851999999999997     40.972349999999992     33.399309000000002
H      32.998699999999999     35.235150000000004     33.505813000000003
H      37.478299999999990     34.649450000000002     39.748320000000007
H      39.086399999999998     36.208749999999995     35.813620000000000
H      38.563099999999991     35.488249999999994     38.251059999999995
H      39.043499999999995     37.713249999999988     36.495710000000003
H      38.313499999999991     40.206850000000003     32.021050000000002
H      39.620299999999993     40.749449999999996     33.194062799999998
H      40.571399999999997     39.287850000000006     34.422250000000005
H      40.041800000000002     38.347049999999996     35.589749999999995
H      39.882699999999993     37.687049999999999     33.753789999999995
H      31.447899999999997     33.792050000000003     35.038709999999995
H      32.745300000000000     32.783150000000006     34.342740000000006
H      37.757299999999994     41.097949999999997     36.207419999999999
H      38.399099999999997     42.524949999999990     35.257630000000006
H      36.802599999999998     41.938149999999993     35.515339999999995
H      36.089499999999994     32.654650000000004     40.045209999999997
H      35.654199999999996     34.315449999999998     41.110259999999997
H      37.678699999999999     33.511150000000001     36.489770000000007
H      40.375099999999989     32.813450000000003     36.532390000000007
H      38.565399999999997     34.435149999999993     35.347719999999995
H      39.538899999999998     33.199650000000005     38.072339999999997
H      37.187899999999999     36.476249999999993     43.749849999999995
H      37.063899999999990     38.693149999999989     42.672439999999995
H      40.317799999999991     35.403049999999993     40.888759999999991
H      37.626100000000001     40.109750000000005     40.598969999999994
H      38.355799999999988     41.088449999999995     41.346779999999995
H      44.552100000000003     37.720149999999990     35.050709999999995
H      44.150099999999995     40.054450000000003     35.401109999999989
H      42.917599999999993     35.892849999999996     36.105149999999995
H      43.118099999999998     41.922449999999998     38.690439999999995
H      43.800699999999999     42.850149999999999     37.466750000000005
H      42.006300000000003     43.537249999999986     36.455200000000005
H      41.755199999999988     44.413349999999994     37.652900000000002
H      39.248299999999993     43.573250000000002     36.782640000000001
H      39.890499999999996     41.868250000000003     36.308859999999996
H      36.728000000000002     43.419650000000004     37.363789999999995
H      36.002399999999994     43.159149999999997     38.760050000000007
N      39.017800000000001     36.066050000000004     42.859300000000005
O      32.337100000000000     32.490449999999996     36.505259999999993
O      41.770999999999994     35.146649999999994     38.136250000000004
O      42.469799999999999     42.597049999999996     34.236019999999996
