8

C      37.874579999999995     38.700649999999996     37.418449999999993
C      38.224080000000001     37.449750000000002     38.510649999999998
H      36.933320000000009     38.726150000000004     36.897250000000000
H      38.721779999999995     38.709350000000008     36.747050000000002
H      38.360180000000000     39.571850000000005     38.112250000000003
H      38.323280000000011     36.428149999999995     37.800649999999990
H      37.374720000000011     37.444050000000004     39.252949999999998
H      39.066679999999991     37.736750000000008     38.980449999999990
