306

C      43.402999999999992     46.207849999999993     45.907349999999994
C      31.699000000000002     33.236749999999994     25.447050000000004
C      31.617300000000000     33.671550000000003     26.911750000000005
C      31.009200000000003     29.839449999999999     28.670750000000005
C      33.338600000000000     29.096949999999993     28.626450000000002
C      32.831000000000003     32.313350000000000     25.110450000000004
C      32.967100000000002     33.041650000000004     27.694050000000004
C      31.547799999999999     31.350649999999995     28.647549999999999
C      34.129700000000000     29.800549999999994     27.680550000000004
C      32.344600000000000     31.801850000000002     27.628750000000004
C      33.164900000000003     31.928449999999998     26.404050000000005
C      31.203299999999999     34.425849999999997     24.558350000000004
C      30.319899999999997     35.262050000000002     25.334150000000005
C      30.791800000000002     35.050049999999999     26.970749999999999
C      30.282700000000002     33.916449999999998     28.081550000000004
C      29.663200000000003     29.326450000000001     28.871950000000005
C      29.783900000000003     28.058250000000001     29.570550000000004
C      31.090500000000002     27.624449999999996     29.242550000000001
C      31.949599999999997     28.772050000000000     28.812450000000002
C      33.501199999999997     32.816650000000003     23.759750000000004
C      32.320499999999996     33.244750000000003     22.573050000000002
C      31.665599999999998     34.565750000000001     23.050850000000004
C      34.255799999999994     30.941749999999999     26.614950000000004
C      33.962800000000001     34.288049999999991     27.469650000000005
C      32.323200000000000     35.847349999999999     22.585450000000005
C      30.890300000000003     35.111150000000002     21.892450000000004
C      28.241600000000002     32.716349999999998     29.067050000000005
C      31.605900000000002     31.745249999999999     22.833250000000003
C      34.542100000000005     31.640450000000001     23.343050000000005
C      29.203199999999999     34.601949999999995     24.979350000000000
C      34.592699999999994     29.543150000000004     29.053150000000002
C      34.991900000000001     44.804349999999999     46.649150000000006
C      36.742199999999997     38.229250000000000     35.679250000000003
C      35.129899999999999     36.245850000000004     36.329650000000001
C      37.963099999999997     38.549849999999992     42.635149999999996
C      37.571600000000004     39.352949999999993     36.254449999999999
C      38.562700000000007     39.816749999999999     42.153250000000007
C      36.566699999999997     37.592849999999991     38.034950000000002
C      36.999399999999994     38.174849999999999     41.465550000000000
C      38.709400000000002     40.499749999999999     38.290450000000000
C      39.064100000000010     40.787250000000000     39.818950000000001
C      37.953699999999998     39.424350000000004     37.700650000000003
C      38.504000000000005     39.766749999999995     40.673650000000002
C      37.481400000000008     38.347749999999998     38.697450000000003
C      37.721400000000003     38.638550000000002     40.216750000000005
C      36.549500000000002     37.906849999999999     34.244050000000001
C      35.750699999999995     36.765649999999994     34.078050000000005
C      35.052800000000005     35.958449999999999     34.989049999999999
C      35.952800000000003     37.378650000000000     36.724650000000004
C      39.182699999999997     41.536549999999998     37.559450000000005
C      39.892600000000002     42.731650000000002     38.166049999999998
C      39.733200000000011     41.968450000000004     40.303050000000006
C      39.916400000000010     43.194350000000000     39.523350000000001
C      39.149600000000007     41.521850000000001     36.131150000000005
C      38.493700000000004     40.266150000000003     35.561550000000004
C      40.094600000000000     42.607849999999999     35.458449999999999
C      36.283099999999997     36.951149999999998     41.816150000000000
C      38.659199999999998     40.990450000000003     43.195450000000001
C      41.202700000000007     43.948349999999998     39.922349999999994
C      38.799000000000007     41.960050000000003     46.280750000000005
C      39.331900000000005     43.092950000000002     45.331450000000004
C      36.374200000000002     47.585349999999998     45.949850000000005
C      37.115499999999997     48.652149999999992     45.426650000000002
C      37.307699999999997     42.441349999999993     45.952450000000006
C      38.404899999999998     44.184049999999999     45.105650000000004
C      37.208599999999997     46.374249999999996     46.123750000000001
C      37.302999999999997     45.674749999999996     47.354149999999997
C      37.082700000000003     43.934649999999998     45.632950000000001
C      36.546999999999997     45.018650000000001     46.267050000000005
C      39.749700000000004     40.951650000000001     46.629950000000001
C      41.300300000000007     41.206650000000003     46.656450000000007
C      41.828200000000010     42.170450000000002     45.701550000000005
C      40.859200000000001     43.147550000000003     45.231750000000005
C      36.783500000000004     41.029949999999999     45.540450000000007
C      37.302400000000006     39.890049999999995     46.843049999999998
C      38.745900000000006     40.115949999999991     47.261650000000003
C      37.183700000000002     40.962750000000000     43.905650000000001
C      41.250500000000002     44.481650000000002     44.634650000000001
C      46.799900000000008     44.747850000000000     42.400150000000004
C      47.019000000000005     44.298450000000003     41.050450000000005
C      51.452200000000005     46.366849999999999     41.810449999999996
C      47.950700000000012     45.341050000000003     43.094650000000001
C      48.237600000000000     44.659449999999993     40.252750000000006
C      50.371500000000012     46.422850000000004     42.611849999999997
C      50.886300000000006     45.369149999999998     40.775850000000005
C      49.171199999999999     45.576650000000001     42.335650000000001
C      49.403600000000012     45.363350000000004     40.916250000000005
C      45.409800000000004     44.617449999999998     42.976550000000003
C      44.285599999999988     43.867049999999999     42.323249999999994
C      44.691299999999998     43.041950000000000     41.159650000000006
C      45.991700000000009     43.346450000000004     40.502450000000003
C      45.006100000000004     45.436550000000004     44.098250000000000
C      42.613600000000005     44.670650000000002     44.154850000000003
C      43.021700000000010     43.664650000000002     43.094650000000001
C      46.125100000000003     46.246250000000003     44.633749999999999
C      43.800899999999999     42.109150000000000     40.610150000000004
C      43.948099999999997     41.415350000000004     39.336150000000004
C      45.170399999999987     41.783650000000002     38.538950000000007
C      46.103699999999989     42.510449999999999     39.263450000000006
C      42.284199999999998     42.553449999999998     42.497150000000005
C      42.483699999999999     41.884149999999998     41.339450000000006
C      48.474399999999989     43.721350000000001     38.938650000000003
C      47.329000000000008     42.610750000000003     38.553350000000002
C      43.679200000000009     45.542649999999995     44.653750000000002
C      48.066499999999991     45.209350000000001     38.948450000000001
C      46.738399999999999     45.546050000000001     38.780350000000006
C      42.179100000000005     43.091049999999996     51.251649999999998
C      41.493000000000009     42.730049999999999     52.533750000000005
C      40.664299999999997     41.583050000000000     49.839250000000000
C      41.851200000000006     42.567050000000002     49.886950000000006
C      40.768700000000010     42.476050000000001     54.197649999999996
C      39.183400000000006     41.456250000000004     52.202850000000005
C      39.640700000000010     41.411050000000003     50.829550000000005
C      40.270099999999999     42.002850000000002     52.943050000000007
C      43.390799999999999     43.874450000000003     51.591749999999998
C      44.061199999999999     44.068649999999998     52.852549999999994
C      43.286400000000000     43.795349999999999     54.160950000000007
C      42.207300000000004     43.017249999999997     53.870449999999998
C      44.297999999999988     44.331450000000004     50.307150000000000
C      45.468900000000005     45.072549999999993     50.666150000000002
C      46.024299999999997     45.177649999999993     51.948150000000005
C      45.330599999999990     44.764549999999993     53.038850000000004
C      43.055900000000008     42.451450000000001     48.858350000000002
C      44.107299999999995     43.582049999999995     49.123150000000003
C      39.352000000000004     41.060050000000004     49.459750000000000
C      41.358200000000011     43.846449999999997     49.206849999999996
C      42.265400000000000     47.087249999999997     45.652449999999995
C      41.145999999999987     47.587450000000004     45.028650000000006
C      40.928200000000004     47.386549999999993     46.349249999999998
C      40.619000000000000     46.556550000000001     48.797149999999995
C      41.366100000000003     47.179849999999995     47.870349999999995
C      38.830900000000000     44.123349999999995     40.035350000000001
C      38.586600000000004     45.656350000000003     39.364050000000006
C      31.965000000000000     36.587450000000004     37.096250000000005
C      30.656300000000002     35.816249999999997     36.980650000000004
C      24.752700000000001     41.412250000000000     38.543450000000007
C      32.536400000000000     37.904850000000003     37.024050000000003
C      26.068200000000001     42.057250000000003     38.873850000000004
C      25.026899999999998     40.073049999999995     38.386850000000003
C      29.478600000000000     36.828449999999997     37.046050000000008
C      28.541699999999999     41.590550000000000     37.915750000000003
C      31.064400000000003     40.364249999999998     37.466149999999999
C      27.449099999999998     38.819350000000000     38.050850000000004
C      27.194400000000002     41.238550000000004     38.421050000000001
C      26.543800000000001     39.884250000000002     38.265050000000002
C      31.248700000000003     38.760050000000000     37.170650000000002
C      29.519399999999997     40.549550000000004     37.637450000000008
C      29.890400000000000     38.260649999999991     37.153250000000000
C      28.904400000000003     39.175249999999998     37.700749999999999
C      28.190799999999999     36.134450000000001     37.344650000000001
C      27.245900000000002     37.379350000000002     37.742750000000008
C      32.847800000000007     35.321049999999993     37.360450000000000
C      34.321199999999997     35.430149999999998     37.338750000000005
C      31.968899999999998     34.169950000000000     37.469850000000001
C      30.527000000000001     34.451549999999997     37.269950000000001
C      29.193600000000004     33.891350000000003     36.732850000000006
C      28.186700000000002     34.613849999999999     37.570650000000001
C      32.263800000000003     32.759850000000000     37.698350000000005
C      29.242600000000003     34.126350000000002     35.303550000000001
C      28.046000000000003     33.615549999999992     34.391649999999998
C      26.090800000000002     43.660350000000001     39.148650000000004
C      29.328900000000001     35.151249999999997     31.593650000000000
C      28.148100000000003     35.350649999999995     32.240550000000006
C      27.314299999999999     36.059449999999998     31.431550000000001
C      27.658899999999999     36.798749999999998     30.292149999999999
C      29.625500000000002     35.301649999999995     30.101950000000002
C      28.817499999999999     36.259650000000001     29.475050000000000
C      27.698800000000002     34.891649999999998     33.589350000000003
C      30.736100000000000     34.537450000000000     29.373050000000003
H      28.655800000000003     32.413550000000001     27.122150000000005
H      31.416599999999999     31.766449999999999     29.743749999999999
H      33.729799999999997     34.902650000000001     26.444750000000003
H      31.682600000000001     35.835050000000003     27.414750000000002
H      28.654599999999999     29.850050000000003     28.750450000000001
H      29.003400000000003     27.292450000000002     29.971450000000001
H      31.445400000000003     26.630049999999997     29.616450000000004
H      34.048100000000005     33.657950000000000     23.824550000000002
H      32.733099999999993     33.095050000000001     21.542250000000003
H      34.131900000000002     30.399850000000001     25.445250000000005
H      35.044300000000007     31.578450000000004     27.016249999999999
H      34.036999999999999     34.973950000000002     28.183550000000004
H      34.995199999999997     33.981349999999992     27.342950000000005
H      29.961700000000000     35.509449999999994     22.023250000000004
H      30.913400000000003     34.621650000000002     20.801750000000006
H      28.758000000000003     31.998449999999998     29.885549999999999
H      27.354700000000001     32.004449999999999     28.863750000000003
H      27.658400000000004     33.927849999999992     29.601949999999999
H      31.563900000000000     31.475050000000003     23.899250000000002
H      30.560200000000002     31.465949999999999     22.301950000000001
H      32.435099999999998     31.168849999999999     22.603050000000003
H      35.084800000000001     31.931249999999999     22.396650000000005
H      34.373400000000004     30.486049999999999     23.222050000000003
H      35.321299999999994     31.902749999999997     23.942050000000005
H      29.969800000000003     36.421950000000002     25.178550000000005
H      28.948000000000004     34.292949999999998     23.930150000000005
H      28.700000000000003     33.975850000000001     25.782050000000005
H      35.291499999999999     28.755449999999996     29.350850000000005
H      34.852999999999994     30.391049999999993     29.556950000000004
H      34.578699999999998     43.931249999999999     46.959250000000004
H      34.628000000000000     45.333750000000002     45.721250000000005
H      34.884600000000006     45.264450000000004     47.630449999999996
H      37.945800000000006     38.214949999999995     43.593849999999996
H      39.469600000000000     40.668849999999999     43.911149999999999
H      36.358899999999998     36.811550000000004     38.968450000000004
H      36.825200000000002     38.335850000000001     33.329650000000008
H      34.051800000000000     35.551349999999992     34.636750000000006
H      35.443799999999996     36.170250000000003     33.198750000000004
H      40.799199999999999     43.017350000000000     37.372750000000003
H      39.699700000000007     41.922449999999998     41.426250000000003
H      41.151899999999998     42.535450000000004     35.856350000000006
H      38.013800000000003     40.447550000000000     34.720450000000007
H      39.316600000000008     39.697550000000000     35.085050000000003
H      39.757100000000008     43.607150000000004     35.078950000000006
H      40.268400000000000     42.294249999999998     34.402850000000001
H      35.877099999999999     37.008849999999995     42.882650000000005
H      36.548299999999998     35.961050000000000     41.940350000000002
H      42.081299999999999     43.329950000000004     39.869450000000001
H      39.002000000000010     42.025050000000000     42.966350000000006
H      41.176600000000008     44.597650000000002     40.880050000000004
H      41.651700000000005     44.259250000000002     38.952450000000006
H      35.267799999999994     47.459949999999992     45.728450000000002
H      39.009399999999999     45.219749999999998     44.829750000000004
H      37.941000000000003     46.331850000000003     45.388550000000002
H      36.824900000000000     45.949049999999993     48.285350000000001
H      41.776899999999998     40.365650000000002     47.013650000000005
H      42.879800000000003     42.225149999999999     45.694050000000004
H      35.726399999999998     40.904850000000003     45.193250000000006
H      36.412300000000002     39.731149999999992     47.629750000000001
H      37.079200000000000     38.878050000000002     46.496049999999997
H      39.104700000000008     39.022149999999996     47.251950000000001
H      36.891700000000000     42.024850000000001     43.360750000000003
H      36.437300000000000     40.219650000000001     43.391350000000003
H      40.843100000000007     45.302650000000000     45.310750000000006
H      40.490300000000005     44.449249999999999     43.820650000000001
H      52.223900000000000     47.037749999999996     42.014550000000007
H      50.358900000000006     47.102049999999991     43.379250000000006
H      51.619499999999988     44.930550000000004     40.115950000000005
H      43.237000000000009     40.575749999999999     38.965350000000001
H      45.430600000000013     41.352150000000002     37.642150000000008
H      41.295700000000011     42.535350000000001     42.905050000000003
H      41.900100000000009     40.966850000000001     41.272350000000003
H      49.470500000000001     43.618949999999998     38.360850000000006
H      47.267600000000002     42.474150000000002     37.534850000000006
H      48.126899999999992     41.664450000000002     38.475349999999999
H      48.793700000000001     45.965850000000003     38.547050000000006
H      46.650300000000001     46.561649999999993     38.258949999999999
H      45.881900000000002     45.169950000000000     39.150550000000003
H      40.412900000000008     42.326250000000002     55.182950000000005
H      38.203100000000006     40.994350000000004     52.627050000000004
H      43.547600000000003     44.158549999999998     55.198249999999994
H      45.675600000000003     45.409249999999993     49.609050000000003
H      46.008900000000011     45.179650000000002     53.972550000000005
H      43.708900000000000     41.612949999999998     49.001550000000002
H      45.018599999999992     43.759650000000001     48.395350000000001
H      42.707000000000008     42.467449999999999     47.806150000000002
H      48.289699999999996     46.088450000000002     51.163149999999995
H      42.179600000000008     44.843750000000000     49.459650000000003
H      41.135899999999992     43.735650000000000     48.204049999999995
H      40.550200000000004     44.393950000000004     49.996450000000003
H      45.046599999999998     45.981850000000001     46.898050000000005
H      46.734999999999999     48.100149999999999     45.397349999999996
H      40.738200000000006     47.736750000000001     44.113550000000004
H      39.623000000000005     46.303350000000002     48.205550000000002
H      40.711500000000001     46.639749999999992     49.871650000000002
H      42.396100000000004     47.699949999999994     48.147650000000006
H      48.463300000000004     46.363350000000004     44.783150000000006
H      37.886300000000006     43.374549999999999     40.091450000000002
H      39.076800000000006     44.073149999999998     41.118949999999998
H      37.720700000000008     46.292349999999999     39.827150000000003
H      39.303400000000011     46.429149999999993     39.598550000000003
H      38.406700000000001     45.864550000000001     38.426050000000004
H      23.776100000000003     42.059249999999999     38.447050000000004
H      33.578200000000002     38.329949999999997     36.939650000000007
H      24.276600000000002     39.289549999999991     38.044350000000001
H      28.735200000000003     42.598750000000003     37.600149999999999
H      31.551900000000000     41.189850000000000     36.793650000000000
H      31.608200000000000     40.609450000000002     38.408050000000003
H      29.108600000000003     32.672449999999998     36.719149999999999
H      27.075900000000001     34.300150000000002     37.416850000000004
H      28.352000000000000     34.349849999999996     38.693050000000007
H      30.099400000000003     33.477150000000002     35.290050000000008
H      29.484700000000000     35.139949999999992     35.073250000000002
H      28.517099999999999     32.825150000000001     33.893250000000009
H      27.184900000000003     33.043650000000000     35.042650000000002
H      25.013200000000001     43.921950000000002     39.342150000000004
H      27.121099999999998     43.771950000000004     39.387250000000002
H      25.902100000000001     43.928649999999998     38.148250000000004
H      29.702199999999998     34.371049999999997     32.445850000000007
H      26.318799999999996     36.470149999999997     31.736550000000001
H      26.776100000000003     37.465149999999994     29.902349999999998
H      28.866699999999998     36.520949999999999     28.390350000000005
H      27.549400000000002     35.737149999999993     34.518850000000008
H      26.792800000000000     34.588149999999999     33.094550000000005
H      31.415100000000002     33.846450000000004     30.040949999999999
H      31.590800000000002     35.337150000000001     29.008450000000003
N      29.182400000000001     32.989550000000001     27.951650000000004
N      47.487100000000012     45.983350000000002     44.314949999999996
O      43.954200000000000     45.816450000000003     47.190350000000002
O      32.906300000000002     36.733650000000004     23.025150000000004
O      37.845900000000000     49.369950000000003     45.883450000000003
O      45.980600000000010     47.294449999999998     45.288650000000004
O      38.602899999999991     40.309350000000002     48.809050000000006
O      32.303799999999995     31.721350000000001     38.163150000000002
O      35.134900000000002     34.963349999999998     38.298450000000003
O      26.492100000000004     36.481149999999992     37.370450000000005
S      47.928799999999995     44.886150000000001     51.671850000000006
