9

C      37.876199999999997     38.740799999999993     38.794649999999997
C      37.867400000000004     36.802800000000005     37.223150000000004
C      37.578000000000003     38.297600000000003     37.540450000000000
H      37.629900000000006     39.646199999999993     38.909050000000001
H      38.557500000000005     38.188600000000008     39.593950000000000
H      38.911199999999994     36.431200000000004     37.077050000000000
H      37.581800000000001     36.353800000000007     38.203650000000003
H      37.197599999999994     36.517200000000003     36.406050000000000
H      37.088800000000006     38.972999999999999     36.870650000000005
