54

C      42.440849999999998     39.388649999999998     39.281899999999993
C      38.056150000000002     39.347949999999997     38.474499999999999
C      36.521149999999999     39.108450000000005     38.533499999999997
C      37.207549999999998     36.149450000000002     34.683700000000002
C      38.653750000000002     36.464449999999999     34.535400000000003
C      39.092649999999999     38.982050000000001     37.471100000000000
C      35.884550000000004     38.616849999999999     37.366500000000002
C      39.215350000000001     37.381649999999993     35.621399999999994
C      36.429150000000000     37.165050000000008     35.196400000000004
C      38.272250000000000     38.178350000000009     36.447499999999998
C      36.820250000000001     38.155850000000001     36.290799999999997
C      38.511450000000004     39.711550000000003     39.781100000000002
C      37.593650000000004     40.102249999999998     40.884800000000006
C      36.030950000000004     39.746749999999992     40.778100000000002
C      35.496650000000002     39.217950000000002     39.569699999999997
C      35.852049999999991     38.242450000000005     34.133400000000002
C      38.455649999999999     35.173450000000003     34.888800000000003
C      40.043849999999999     39.694849999999988     39.931500000000000
C      40.522750000000002     39.905149999999992     41.252299999999991
C      39.561950000000003     40.176249999999996     42.308900000000001
C      38.182749999999999     40.431449999999998     42.153900000000000
C      41.038150000000002     39.787450000000007     38.843400000000003
C      40.569650000000003     39.225049999999996     37.578800000000001
C      41.265050000000002     38.525750000000002     36.592300000000002
C      40.635150000000003     37.689750000000004     35.700899999999997
C      34.488950000000003     39.145550000000000     36.859900000000003
C      33.286749999999998     39.218950000000007     37.941499999999998
C      33.968549999999993     39.218450000000004     39.421399999999998
C      35.589050000000000     36.061549999999997     35.520099999999999
C      42.111449999999998     40.772050000000007     38.797000000000004
C      39.693550000000002     35.573149999999998     33.826500000000003
H      43.011550000000000     37.372450000000001     39.227400000000003
H      34.968750000000000     38.097549999999998     34.794900000000005
H      35.283149999999992     39.917950000000005     41.606000000000002
H      35.886849999999995     37.735450000000000     33.165300000000002
H      38.415849999999999     34.367249999999999     35.661200000000001
H      41.528849999999998     40.087050000000005     41.553400000000003
H      39.981849999999994     40.586950000000002     43.259499999999996
H      37.835050000000003     40.914749999999998     42.938700000000004
H      42.385649999999998     38.653549999999996     36.503499999999995
H      41.296449999999993     37.058149999999998     35.003699999999995
H      35.014849999999996     39.982349999999997     36.525900000000000
H      34.354649999999992     38.912950000000009     35.752099999999999
H      32.799450000000000     38.360950000000003     37.804899999999996
H      32.647050000000000     40.104050000000001     37.716000000000001
H      33.340650000000004     39.132950000000008     40.421600000000005
H      34.008250000000004     40.397549999999995     39.308999999999997
H      35.848950000000002     35.665450000000007     36.425399999999996
H      34.631149999999991     35.838850000000008     34.813200000000002
H      42.268950000000004     41.632750000000001     39.294699999999992
H      36.195650000000001     39.186250000000001     34.093899999999998
H      40.648850000000003     35.515549999999990     34.303699999999999
H      39.523049999999998     35.540549999999996     32.740500000000004
O      43.352950000000000     38.402049999999988     38.866100000000003
