30

C      37.605500000000006     37.624087999999986     37.714454999999987
C      36.554100000000005     36.850278000000003     38.441594999999992
C      37.824500000000000     39.681008000000006     42.078474999999997
C      38.504500000000007     38.669538000000003     38.418224999999993
C      36.551100000000005     37.218707999999992     39.943374999999989
C      38.443100000000001     40.057447999999994     40.822274999999991
C      36.908800000000014     38.638437999999994     42.029174999999995
C      38.159500000000008     39.089498000000006     39.792964999999995
C      37.238500000000002     38.153227999999999     40.587975000000000
C      37.720800000000011     37.316078000000005     36.248644999999996
C      36.661400000000000     36.666397999999987     35.565195000000003
C      35.637200000000007     36.097707999999997     37.820124999999990
C      39.197100000000006     37.282657999999998     35.994154999999992
C      39.171300000000002     36.646258000000003     34.697784999999996
C      38.252400000000009     35.914205999999993     33.810724999999991
C      36.938600000000008     36.051928000000004     34.300105000000002
C      40.257500000000007     37.952907999999994     36.618034999999992
C      39.785600000000002     38.581877999999989     37.825274999999991
H      34.924600000000012     35.115412000000006     35.892034999999993
H      38.062899999999999     40.210018000000005     43.072675000000004
H      35.920400000000001     36.642107999999993     40.617974999999987
H      39.373200000000011     40.884587999999994     40.439414999999997
H      36.369200000000006     38.345117999999985     42.828074999999984
H      34.608199999999997     35.585804999999993     38.190244999999990
H      40.177300000000002     36.478988000000001     34.093164999999985
H      38.458100000000002     35.322800999999998     32.927324999999996
H      35.975000000000009     35.697778999999997     33.794544999999985
H      41.391800000000003     37.978718000000001     36.339174999999997
H      40.537100000000009     39.251097999999999     38.416285000000002
N      35.455100000000002     36.100017999999992     36.297074999999992
