5

C      37.941499999999998     37.979249999999993     37.821449999999992
H      37.465400000000002     37.800249999999998     38.901150000000001
H      38.974199999999996     38.118049999999997     37.800849999999997
H      37.471900000000005     37.135849999999998     37.098849999999999
H      37.025800000000004     38.864150000000002     37.397550000000003
