7

C      38.566404999999996     38.512899999999988     38.290299999999995
C      37.387735000000006     38.419599999999996     38.915800000000004
C      38.932275000000004     37.341799999999999     37.426900000000003
H      39.238884999999996     39.358499999999999     38.458600000000004
H      36.761115000000004     37.566699999999990     38.661000000000001
H      37.108334999999997     39.501899999999999     39.279499999999999
O      39.149025000000002     36.498100000000001     36.720500000000001
