5

C      38.672300000000007     38.017550000000000     37.546249999999993
C      37.747799999999998     38.302750000000003     38.394550000000002
H      38.027400000000000     38.300650000000005     39.488549999999996
H      36.714500000000001     37.697249999999997     37.873650000000005
O      39.285499999999999     38.200050000000005     36.511450000000004
