44

C      39.569449999999989     32.463399999999993     39.113999999999990
C      38.155650000000009     33.312799999999996     36.926800000000000
C      38.307850000000002     38.086899999999993     36.329400000000007
C      37.796250000000001     38.273499999999999     37.792100000000005
C      36.265150000000006     38.465099999999993     37.901100000000000
C      37.735949999999988     42.929400000000001     37.565500000000000
C      38.816950000000006     39.317200000000000     38.128299999999996
C      35.902650000000008     39.805200000000006     37.640000000000001
C      38.748350000000002     41.969200000000008     38.050399999999996
C      36.553550000000001     42.415799999999997     37.129800000000003
C      38.204049999999995     40.642899999999997     38.100199999999987
C      36.745549999999994     40.940699999999993     37.537300000000002
C      38.452150000000003     37.013500000000001     37.542200000000008
C      37.563450000000003     35.762200000000000     37.405699999999996
C      36.177850000000007     36.049700000000001     37.695800000000006
C      35.396650000000008     37.254299999999994     37.803899999999999
C      39.954250000000002     36.708000000000006     37.995500000000007
C      39.981250000000003     35.178399999999996     37.907200000000003
C      38.605649999999997     34.662999999999997     37.461999999999989
C      38.813850000000002     32.288100000000000     37.762500000000003
C      40.765250000000009     37.831700000000005     38.438699999999997
C      40.231850000000009     39.199500000000000     38.275300000000001
C      40.819849999999988     40.542800000000007     39.010599999999997
C      40.282950000000000     41.886199999999995     38.350600000000000
C      40.939549999999997     42.241199999999992     37.130099999999999
H      35.751249999999999     34.877999999999993     37.404899999999998
H      37.639750000000006     33.260399999999997     36.064000000000007
H      39.275949999999995     38.599700000000006     36.199500000000000
H      37.410550000000001     38.131999999999998     35.728700000000003
H      34.045050000000003     39.730300000000000     36.495699999999985
H      37.969049999999996     44.072899999999997     37.626300000000001
H      35.579049999999995     42.897200000000005     37.038399999999996
H      34.387749999999997     37.094700000000003     38.258499999999998
H      40.914550000000006     34.592900000000000     38.015000000000001
H      41.675250000000005     37.676300000000005     38.924099999999996
H      40.184950000000001     40.546700000000001     39.898399999999995
H      41.954949999999997     40.492199999999997     39.122299999999996
H      40.371749999999992     42.668399999999998     39.030299999999997
H      41.763649999999998     41.419799999999995     37.050500000000000
H      40.098349999999996     42.688899999999990     36.473700000000008
H      41.294049999999999     43.217599999999990     37.310100000000006
O      39.656850000000006     32.088600000000007     40.271299999999997
O      40.037949999999995     31.927100000000003     37.855199999999996
O      34.540949999999995     40.169600000000003     37.457400000000007
