10

C      37.197899999999990     36.844449999999995     36.967729999999989
C      37.563600000000008     37.951750000000004     38.062729999999988
C      38.666399999999996     38.999150000000000     37.421030000000002
C      38.622799999999998     37.637349999999998     37.068529999999981
C      37.295299999999997     37.034550000000010     39.300229999999985
H      36.798400000000001     35.903250000000000     37.294030000000006
H      36.454999999999998     37.128650000000007     36.049329999999998
H      39.545000000000002     37.017049999999998     37.451329999999999
O      37.005099999999999     37.897549999999995     39.950670000000002
O      38.542500000000004     40.096750000000000     36.874229999999997
