62

C      42.156649999999992     42.147900000000000     38.601504999999982
C      32.723850000000006     33.377400000000002     38.959804999999989
C      40.786450000000002     40.209599999999988     39.241504999999982
C      34.828949999999999     36.013700000000000     33.768904999999990
C      33.845649999999999     35.206299999999999     34.551704999999998
C      40.720550000000003     39.839099999999995     37.748604999999991
C      35.262850000000000     34.933800000000005     40.172004999999999
C      39.827550000000002     39.555599999999998     40.158204999999995
C      36.096150000000002     36.650999999999989     34.107904999999988
C      36.437449999999998     35.595399999999998     40.519497899999990
C      34.217550000000003     35.070300000000003     35.861504999999994
C      39.943350000000002     38.946500000000000     37.228404999999995
C      34.912849999999999     34.848399999999998     38.800004999999992
C      38.219549999999998     37.487899999999996     40.291104999999988
C      37.377049999999997     37.376199999999990     36.217904999999988
C      38.871049999999997     38.595399999999998     39.524204999999995
C      36.363650000000000     36.575500000000005     35.525904999999995
C      37.253349999999998     36.557600000000008     39.718204999999998
C      35.407950000000000     35.757599999999996     36.374804999999995
C      38.908349999999999     38.244299999999996     37.967904999999988
C      35.806950000000001     35.580799999999996     37.840504999999986
C      38.071750000000002     37.120199999999997     37.500304999999997
C      37.120950000000001     36.312100000000001     38.194704999999999
C      33.525250000000000     34.163600000000002     36.811304999999990
C      33.650250000000000     34.140299999999996     38.218004999999991
C      41.864449999999998     41.093699999999998     39.649504999999991
C      42.397649999999999     41.765699999999995     37.262104999999991
C      41.516350000000003     40.721500000000006     36.810004999999990
C      40.217849999999999     39.626800000000003     41.607795000000003
C      41.051450000000003     40.825600000000009     42.265465000000006
C      41.976950000000002     41.341999999999999     41.093153999999998
C      38.785250000000005     39.478999999999999     42.254454999999993
C      40.860849999999999     38.410399999999996     42.107075000000009
C      43.114749999999994     40.183400000000006     40.390004999999988
C      41.354649999999999     37.244900000000001     41.084404999999990
H      42.297849999999997     43.192200000000000     39.088104999999999
H      34.458149999999996     35.998699999999999     32.717604999999992
H      32.915950000000002     34.680599999999998     34.093804999999989
H      34.628150000000005     34.548800000000000     40.929801999999995
H      36.631749999999997     37.237499999999997     33.337304999999986
H      37.253349999999998     34.555999999999997     40.756695999999991
H      39.685749999999999     38.627199999999995     36.143904999999990
H      38.100850000000001     37.262900000000002     41.284371999999991
H      37.646850000000001     38.157499999999999     35.521204999999988
H      32.924250000000001     33.621799999999993     36.203404999999982
H      42.847250000000003     42.360999999999997     36.790904999999995
H      41.373350000000002     40.297200000000004     35.823404999999994
H      40.431150000000002     41.593500000000006     42.704684999999998
H      41.705650000000006     40.640299999999996     43.282395000000008
H      42.464349999999996     42.404300000000006     41.285373000000000
H      38.683949999999996     38.294300000000007     43.019365000000001
H      37.817250000000001     39.246300000000005     41.971274999999999
H      38.857349999999997     40.371200000000002     42.960374999999999
H      40.090450000000004     37.806899999999999     42.771495000000002
H      41.785150000000002     38.596500000000006     42.860965000000000
H      43.957650000000001     40.244200000000006     41.003928999999999
H      43.097650000000002     39.049599999999998     40.374204999999982
H      42.019449999999999     37.561400000000006     40.117404999999984
H      40.577249999999999     36.736699999999999     40.484920070000001
H      41.913150000000002     36.552599999999991     41.827364999999993
H      36.386150000000001     36.297899999999998     41.471122999999999
O      32.042349999999999     32.807800000000000     39.591804999999994
