59

C      37.986199999999997     37.307494999999996     40.517649999999989
C      37.274000000000001     35.903221000000002     40.360749999999996
C      37.727300000000000     37.338544999999996     35.357349999999997
C      37.202800000000003     36.041025000000005     35.303749999999994
C      37.942599999999999     38.036784999999995     39.246249999999989
C      37.033299999999997     35.354334999999999     39.171849999999992
C      37.902700000000003     38.068165000000000     36.613749999999996
C      36.908900000000003     35.341234999999998     36.577050000000000
C      37.712499999999999     37.473324999999996     37.952050000000000
C      37.132300000000001     36.022103000000001     37.858349999999987
C      38.098199999999991     38.102074999999999     41.777349999999998
C      37.554400000000001     37.450315000000003     42.893549999999991
C      36.957200000000000     36.055692000000001     42.997449999999986
C      36.749099999999999     35.474561100000003     41.755649999999989
C      38.108499999999999     38.186235000000003     34.097349999999992
C      38.546699999999994     37.256535000000000     32.958749999999995
C      38.518500000000003     35.600967000000004     33.068249999999992
C      37.786500000000004     35.142634999999999     34.258250000000004
C      38.365299999999998     39.628224999999993     41.758349999999993
C      38.544000000000004     40.407705000000007     42.967549999999989
C      38.478800000000000     39.525405000000006     44.072449999999989
C      37.867899999999999     38.151645000000002     44.177249999999987
C      38.375000000000000     40.285394999999994     40.555249999999987
C      38.142600000000002     39.425404999999998     39.274249999999995
C      38.154899999999998     40.192395000000005     38.023149999999987
C      38.209999999999994     39.509785000000001     36.739049999999992
C      38.368899999999996     39.575034999999993     34.329349999999991
C      38.429400000000001     40.317454999999995     35.624250000000004
C      37.204999999999998     38.279875000000004     32.944649999999996
C      37.424900000000001     41.479854999999993     35.439549999999997
C      39.699900000000000     40.373015000000002     34.754750000000001
C      38.997599999999998     34.955035000000002     31.838349999999995
C      39.906199999999998     35.157535000000003     33.218649999999997
C      35.554000000000002     36.268015000000005     34.823650000000001
H      36.438299999999998     34.456535000000009     39.015649999999994
H      37.052799999999998     34.187234999999994     36.464150000000004
H      37.166200000000003     35.323535000000007     43.869949999999989
H      35.993800000000000     34.469434999999983     41.781649999999999
H      39.378000000000000     37.619175000000006     32.256449999999994
H      38.428100000000001     41.429505000000006     43.089849999999998
H      38.615700000000004     39.686305000000004     45.045449999999988
H      37.417300000000004     37.601915000000005     45.077849999999998
H      38.452100000000002     41.238814999999995     40.381749999999997
H      38.274700000000003     41.238874999999993     37.784149999999997
H      37.910400000000003     34.182135000000002     34.634549999999990
H      36.266100000000002     37.868075000000005     32.864649999999990
H      37.188699999999997     39.272075000000001     32.521749999999990
H      37.627000000000002     42.161265000000000     36.221850000000003
H      36.403399999999998     41.386705000000006     35.884149999999991
H      37.302799999999991     42.009525000000004     34.394649999999999
H      39.813599999999994     41.456465000000001     34.814549999999997
H      40.749099999999991     39.915655000000001     34.248350000000002
H      38.682200000000002     35.633751000000004     30.922149999999998
H      38.413100000000000     33.838735000000000     31.813449999999996
H      40.207999999999998     34.225434999999983     33.707949999999997
H      40.781100000000002     35.956092000000005     33.238249999999994
H      35.218899999999998     35.675274000000002     35.579650000000001
H      35.414700000000003     37.309795000000001     34.756349999999998
H      35.432099999999998     35.619683999999999     33.891249999999999
