12

C      39.219349999999999     38.786199999999994     37.015399999999993
C      38.067150000000005     38.957100000000004     37.267499999999998
C      37.190450000000006     38.297699999999999     38.278999999999996
C      38.078250000000004     37.244299999999996     39.201899999999995
H      39.583350000000003     37.741700000000002     37.305599999999998
H      39.625850000000000     39.088299999999997     36.143299999999996
H      37.836449999999992     39.741599999999998     36.454400000000000
H      36.374150000000000     38.756700000000002     38.742799999999995
H      36.660750000000007     37.342199999999998     37.721199999999996
H      38.821449999999999     37.827900000000007     39.721399999999996
H      37.382950000000001     36.699800000000003     39.856700000000004
H      38.214750000000002     36.258400000000002     38.637799999999991
