377

C      32.083349999999996     32.219799999999992     36.706019999999995
C      35.275050000000000     28.451499999999996     37.394819999999996
C      39.574850000000005     32.606399999999994     48.201619999999998
C      37.080350000000003     32.583599999999997     48.156219999999998
C      39.878750000000004     30.054600000000001     47.192820000000005
C      38.918549999999996     28.957499999999996     46.810219999999994
C      38.226149999999997     34.433900000000001     49.223219999999998
C      38.422949999999993     32.190599999999996     47.719920000000002
C      39.501850000000005     35.108799999999995     49.452620000000003
C      39.059249999999999     30.311799999999998     46.191319999999997
C      39.325850000000003     33.842599999999990     48.745020000000004
C      38.465050000000005     31.678800000000003     46.214720000000000
C      38.288550000000001     35.883800000000001     49.948920000000001
C      39.044149999999995     31.074900000000000     48.481720000000003
C      37.664350000000006     28.930900000000001     47.652719999999995
C      38.699350000000003     32.252200000000002     44.865019999999994
C      38.836049999999993     31.188899999999997     43.844820000000006
C      39.186250000000001     29.866399999999999     44.543519999999994
C      35.508449999999996     34.829099999999997     46.808820000000004
C      33.960250000000002     35.133200000000002     47.052719999999994
C      35.955850000000005     33.667899999999996     47.951820000000005
C      35.581849999999996     32.343099999999993     47.998519999999992
C      37.660750000000000     35.939299999999996     51.368919999999996
C      35.080850000000005     31.458599999999997     49.203719999999990
C      38.644650000000006     27.672199999999989     45.795620000000000
C      31.756250000000001     29.009499999999996     52.102919999999997
C      30.601850000000006     28.786200000000001     51.463119999999996
C      30.486849999999997     28.748199999999997     50.054519999999997
C      31.617850000000004     29.508499999999991     49.421120000000002
C      32.804949999999998     29.966600000000000     49.997320000000002
C      32.912349999999996     29.769399999999997     51.442419999999998
C      31.971650000000004     28.505000000000003     53.384319999999995
C      33.726949999999995     30.502000000000002     49.041519999999998
C      36.162849999999999     28.795200000000001     36.416019999999996
C      33.693850000000005     30.095999999999997     37.048420000000000
C      40.207350000000005     25.900300000000001     34.783619999999999
C      33.452849999999998     31.519900000000000     37.134019999999992
C      40.133350000000000     25.704099999999997     36.171120000000002
C      35.014450000000004     32.049099999999996     37.261620000000001
C      39.796250000000001     24.681399999999996     35.699719999999999
C      35.543450000000000     29.534100000000002     43.396219999999992
C      39.020150000000001     29.446300000000001     36.532019999999996
C      37.130350000000000     31.674399999999999     37.807620000000000
C      37.082950000000004     31.499099999999991     39.304220000000001
C      38.255049999999997     29.050699999999999     39.186219999999999
C      37.081550000000000     27.809199999999997     40.739420000000003
C      35.841350000000006     31.667299999999997     38.377020000000002
C      39.644050000000000     26.159199999999998     38.352020000000003
C      37.424450000000000     30.097899999999989     39.837620000000001
C      38.135149999999996     27.655900000000003     39.690519999999999
C      36.028750000000002     29.733399999999996     42.081420000000001
C      39.774049999999995     28.343800000000002     37.248819999999995
C      36.884650000000001     29.317500000000003     40.907919999999997
C      39.170350000000006     29.490199999999994     37.988620000000004
C      35.207250000000002     28.421599999999998     42.644820000000003
C      36.553650000000005     26.705999999999996     41.486319999999999
C      40.909349999999996     26.530799999999999     33.610819999999997
C      35.089150000000004     30.108399999999996     44.805219999999998
C      34.198950000000004     26.703400000000002     40.985819999999997
C      35.196050000000000     27.032400000000003     42.059319999999992
C      34.067049999999995     25.100299999999997     40.950319999999991
C      35.444350000000000     26.231299999999997     43.339219999999997
C      39.986949999999993     26.909399999999998     37.108719999999998
C      37.716050000000003     32.685699999999997     40.032919999999997
C      35.412850000000006     33.982599999999998     32.916319999999999
C      34.082550000000005     47.902200000000001     46.232720000000000
C      32.407749999999993     48.499099999999999     49.404519999999998
C      31.769850000000005     44.610199999999999     49.990519999999997
C      33.570550000000004     46.573199999999993     47.020320000000005
C      31.175749999999994     48.518099999999997     49.024119999999996
C      32.864350000000002     44.663999999999994     48.687419999999989
C      32.774649999999994     46.215499999999999     48.228420000000000
C      31.740750000000006     47.118899999999989     49.113119999999995
C      35.621549999999999     49.627299999999998     47.328219999999995
C      33.339449999999999     49.214299999999994     48.530220000000000
C      34.157349999999994     49.328999999999986     47.318919999999999
C      33.092950000000002     50.297599999999996     47.602020000000003
C      34.816449999999996     46.589299999999994     46.309419999999989
C      36.039850000000001     46.908999999999992     47.212119999999999
C      36.511549999999993     48.486199999999997     47.611719999999991
C      30.047750000000001     49.576499999999996     48.478619999999999
C      30.687749999999994     49.847499999999997     47.000619999999998
C      31.787750000000003     51.183099999999996     47.541220000000003
C      32.302550000000004     43.737000000000002     51.235519999999994
C      32.149450000000002     42.107799999999997     51.337419999999995
C      31.114650000000005     41.374499999999998     50.548819999999992
C      33.480150000000002     43.579799999999999     47.528619999999997
C      33.198149999999998     44.578800000000001     50.121220000000001
C      36.829749999999997     49.280599999999986     46.561119999999995
C      37.815450000000006     49.435400000000001     45.406619999999997
C      37.852950000000000     50.903599999999990     44.787520000000001
C      36.630749999999999     51.426799999999993     44.018120000000003
C      32.752549999999999     41.509399999999992     52.551619999999993
C      34.652849999999994     45.778499999999994     45.155520000000003
C      32.840450000000004     41.539499999999997     50.158119999999997
C      32.040350000000004     46.460900000000002     46.690619999999996
C      32.274550000000005     48.891099999999994     50.946120000000001
C      32.159149999999997     44.672699999999992     52.557420000000000
C      34.776749999999993     39.506999999999991     48.164719999999996
C      34.336950000000002     38.501899999999999     47.165720000000000
C      32.549749999999996     35.377699999999990     50.773119999999999
C      34.226050000000001     39.261399999999995     49.458819999999989
C      33.429850000000002     37.372099999999996     47.447420000000001
C      33.693950000000001     37.526699999999998     51.005519999999990
C      33.291749999999993     37.954000000000001     49.704519999999995
C      33.007449999999999     36.856899999999989     48.840719999999990
C      36.064550000000004     40.424099999999989     47.881519999999995
C      36.431150000000002     40.410899999999991     46.502620000000000
C      35.975150000000006     39.482999999999997     45.308120000000002
C      34.942149999999998     38.608100000000000     45.727420000000002
C      36.577950000000001     41.234600000000000     48.993919999999989
C      37.456049999999998     42.322199999999995     48.730619999999995
C      37.834050000000005     42.613399999999999     47.309919999999998
C      37.287050000000001     41.618800000000000     46.356320000000004
C      36.267950000000006     40.873399999999997     50.495920000000005
C      35.061649999999993     39.943299999999994     50.672120000000000
C      36.445549999999997     39.589500000000001     44.027920000000002
C      36.230050000000006     38.587999999999994     43.037919999999993
C      35.056849999999997     37.771000000000001     43.227719999999991
C      34.526449999999997     37.709699999999998     44.575919999999996
C      37.477649999999997     41.994500000000002     44.847919999999995
C      37.269649999999999     40.719899999999996     43.871519999999997
C      33.809550000000002     36.542000000000002     45.046920000000000
C      33.319449999999996     36.420599999999993     46.398919999999997
C      38.132350000000002     43.158799999999992     49.668820000000004
C      38.676050000000004     44.485900000000001     49.474319999999992
C      39.038050000000005     44.697499999999998     48.061219999999999
C      38.838450000000002     43.704499999999996     47.131019999999999
C      36.825750000000006     39.607399999999998     50.974620000000002
C      33.120150000000002     36.304399999999994     51.616520000000001
C      36.503450000000001     42.057299999999998     51.472519999999996
C      37.414249999999996     43.380099999999999     51.068519999999992
C      33.630850000000002     40.211100000000002     50.332220000000000
C      35.087750000000000     32.581699999999991     35.806620000000002
C      31.336150000000004     35.656099999999995     34.786320000000003
C      31.655550000000005     34.532600000000002     34.147820000000003
C      27.774250000000002     33.940199999999990     37.415519999999994
C      26.515750000000004     33.366999999999990     37.995619999999995
C      31.715150000000001     36.616599999999998     35.963320000000003
C      30.272850000000005     34.657899999999998     34.570720000000001
C      28.623549999999994     34.961399999999998     37.947319999999991
C      28.410450000000004     33.287399999999998     36.173719999999996
C      29.690850000000005     35.264800000000001     36.969420000000000
C      29.446550000000002     34.325299999999991     35.822319999999998
C      32.589049999999993     33.652600000000000     33.383319999999998
C      33.082250000000002     32.490899999999996     32.518120000000003
C      32.294550000000001     31.374000000000002     31.968119999999999
C      33.989250000000006     33.250899999999994     33.224219999999995
C      32.963950000000004     37.223099999999995     36.283720000000002
C      30.530450000000002     36.154299999999999     37.065220000000004
C      31.861350000000002     38.101300000000002     35.639220000000002
C      26.474150000000002     33.282499999999999     39.331219999999995
C      34.186750000000004     37.010100000000001     35.165120000000002
C      31.134750000000004     31.001399999999990     32.735019999999999
C      34.461649999999999     32.309799999999989     34.401020000000003
C      32.984449999999995     30.636600000000001     26.411600000000000
C      33.865049999999997     30.033299999999997     27.256860000000003
C      31.167750000000005     32.194099999999992     31.049520000000001
C      31.774950000000004     31.348799999999997     27.179729999999996
C      33.748650000000005     30.193799999999996     28.623839999999998
C      30.879550000000002     32.093899999999998     29.496519999999997
C      32.705350000000003     30.476300000000002     30.843319999999999
C      31.830249999999999     31.596399999999996     28.630830000000000
C      32.691750000000006     30.824700000000000     29.470419999999997
C      32.881850000000000     30.000000000000000     25.074169999999999
C      33.806250000000006     29.283699999999996     24.323719999999998
C      34.983549999999994     29.012599999999999     25.255459999999996
C      34.928850000000004     29.243499999999997     26.645619999999997
C      31.514149999999994     30.493999999999993     24.470509999999997
C      31.334450000000004     30.056599999999996     22.992389999999997
C      32.136050000000004     29.008000000000003     22.411280000000001
C      33.387249999999995     28.549599999999998     23.043110000000002
C      30.861050000000006     31.830500000000001     26.224580000000000
C      30.799149999999997     31.719499999999996     24.811149999999998
C      29.475950000000005     31.860199999999992     24.170259999999995
C      29.851850000000006     31.617100000000001     31.785020000000003
C      35.250950000000003     37.396599999999992     35.821220000000004
C      48.077649999999998     32.462800000000001     40.145919999999997
C      39.755549999999992     31.830700000000000     39.271419999999999
C      47.936349999999997     33.434100000000001     39.027520000000003
C      40.430950000000003     32.854399999999998     40.118720000000003
C      49.226350000000004     31.689999999999998     40.674519999999994
C      39.311550000000004     33.150299999999994     39.322319999999998
C      45.625150000000005     33.882100000000001     39.329019999999993
C      41.041550000000001     33.305999999999997     44.256220000000006
C      46.675850000000004     31.252499999999998     41.995219999999996
C      40.777550000000005     33.340199999999989     41.452319999999993
C      45.709049999999998     31.356000000000002     43.146020000000000
C      43.220650000000006     33.692399999999992     41.056319999999999
C      46.734649999999995     32.279899999999998     40.858219999999996
C      42.102750000000000     33.520699999999991     42.095119999999994
C      45.391950000000001     32.749600000000001     40.495120000000000
C      42.215050000000005     33.041800000000002     43.516219999999997
C      44.386150000000001     32.791499999999992     41.411920000000002
C      44.556550000000001     32.256200000000000     42.803319999999999
C      44.282950000000000     34.373799999999996     38.828220000000002
C      43.039750000000005     34.320099999999989     39.697319999999998
C      43.549650000000000     32.474499999999999     43.760719999999999
C      45.902050000000003     30.052900000000001     42.501020000000004
C      49.266249999999992     33.837899999999991     38.572520000000004
C      46.789149999999999     34.943899999999992     37.436219999999992
C      46.676349999999999     34.012499999999996     38.564720000000001
C      45.576650000000001     35.334199999999996     36.889719999999997
C      44.359850000000002     35.146200000000000     37.601019999999991
C      47.326549999999997     29.856999999999999     41.905920000000002
C      40.206350000000000     30.565300000000001     38.448320000000002
H      31.263650000000005     32.086999999999996     36.080919999999992
H      35.259050000000002     29.176600000000001     38.252019999999995
H      31.160550000000001     48.633400000000002     51.150519999999993
H      40.948649999999994     29.968800000000002     46.999619999999993
H      37.868649999999995     37.027200000000001     51.644319999999993
H      38.435350000000000     30.996800000000000     49.293619999999997
H      36.791450000000005     28.899699999999996     46.933219999999992
H      37.121250000000003     28.012599999999999     47.918319999999994
H      37.430350000000004     29.666399999999996     48.265419999999999
H      37.797049999999999     33.168100000000003     44.619419999999991
H      39.509650000000001     31.518400000000000     43.062019999999990
H      37.829449999999994     30.886299999999999     43.433520000000001
H      40.024650000000001     29.169699999999999     44.421319999999994
H      38.595249999999993     28.996299999999998     44.190720000000006
H      36.213249999999995     35.759099999999997     46.828319999999991
H      33.648950000000006     34.269500000000001     46.565019999999990
H      34.072550000000000     35.162100000000002     48.267720000000004
H      35.914549999999998     34.258600000000001     46.003720000000001
H      35.793150000000004     34.108099999999993     48.994120000000002
H      35.140149999999998     32.074300000000001     47.071220000000004
H      36.449950000000001     35.583799999999997     51.382220000000004
H      38.606350000000006     35.269299999999994     51.877519999999997
H      37.904949999999992     36.704499999999989     49.290320000000001
H      36.068649999999998     30.800300000000000     49.328719999999997
H      34.728349999999999     32.178799999999995     49.858820000000001
H      37.916450000000005     26.883299999999998     46.606320000000004
H      39.576150000000005     27.052000000000000     45.469720000000002
H      37.831450000000004     27.803100000000001     45.098520000000001
H      29.825150000000001     28.194000000000003     52.056119999999993
H      29.599450000000004     28.695900000000002     49.429220000000001
H      31.762150000000005     29.824799999999996     48.310820000000000
H      33.497950000000003     30.500700000000002     52.084119999999992
H      34.118250000000003     29.636600000000001     48.364920000000005
H      33.257650000000005     31.231200000000001     48.115419999999993
H      39.620349999999995     31.326299999999996     35.670219999999993
H      40.605650000000004     30.962400000000002     37.457619999999999
H      41.777449999999995     27.103999999999999     34.134619999999998
H      40.472549999999998     23.835099999999997     35.618519999999997
H      37.829849999999993     31.700400000000002     37.006620000000005
H      38.662750000000003     25.483499999999999     39.934120000000000
H      36.392350000000000     25.318700000000000     41.529319999999998
H      40.610450000000000     27.662100000000002     33.590620000000001
H      41.057750000000006     30.290699999999994     35.638920000000006
H      34.075450000000004     30.515799999999992     44.748619999999995
H      34.709049999999998     29.486199999999997     45.639919999999989
H      33.198350000000005     27.256099999999996     41.090120000000006
H      34.665450000000000     26.978400000000001     40.037219999999998
H      35.510649999999998     25.083700000000000     43.049919999999993
H      34.618550000000006     26.182200000000002     44.042120000000004
H      36.133949999999999     26.751799999999996     44.161720000000003
H      39.928750000000001     25.201499999999996     37.982220000000005
H      38.233650000000004     31.779499999999999     40.814920000000001
H      37.186050000000002     33.410699999999999     40.625719999999994
H      35.935349999999993     34.587699999999991     33.661520000000003
H      36.221150000000002     33.269999999999996     32.933019999999992
H      34.697749999999999     34.558099999999996     32.518320000000003
H      41.289550000000006     25.775900000000000     33.093920000000004
H      38.108850000000004     40.419699999999999     43.282119999999992
H      35.662449999999993     27.590899999999998     37.928820000000002
H      36.775650000000006     46.135300000000001     47.323819999999998
H      35.799650000000000     46.598599999999998     48.152520000000003
H      33.671249999999993     48.035799999999995     45.310619999999993
H      37.401750000000000     48.510399999999997     48.555219999999998
H      28.915649999999999     49.260599999999997     48.379120000000000
H      30.158850000000001     50.465499999999999     49.369119999999995
H      29.995250000000006     50.264600000000002     46.339619999999996
H      31.477350000000001     49.161399999999993     46.712820000000001
H      32.030849999999994     51.942199999999993     46.702819999999996
H      31.492550000000001     51.772000000000006     48.448020000000000
H      30.332650000000001     42.063000000000002     50.088020000000000
H      30.611950000000000     40.451200000000000     51.186819999999990
H      33.312350000000002     44.137499999999996     46.547019999999996
H      32.824550000000002     42.540299999999995     47.639819999999993
H      34.235350000000004     44.660899999999991     50.287619999999990
H      38.943249999999999     49.348299999999988     45.666519999999998
H      37.776050000000005     48.721800000000002     44.618320000000004
H      37.526650000000004     51.582199999999993     45.704020000000000
H      38.705050000000000     51.059199999999997     44.264020000000002
H      35.811650000000000     50.760699999999993     43.911420000000000
H      36.077749999999995     52.164900000000003     44.551920000000003
H      36.509449999999994     51.767600000000002     42.880819999999993
H      33.748750000000001     41.341099999999990     52.500419999999998
H      32.075750000000006     40.747700000000002     52.735820000000004
H      32.726650000000006     42.244000000000000     53.441719999999997
H      33.742049999999999     45.742599999999989     44.558619999999991
H      35.392150000000001     44.764599999999994     45.176020000000001
H      35.488350000000004     46.277000000000001     44.581420000000001
H      32.952750000000002     41.959299999999999     49.085820000000005
H      30.569450000000003     46.252099999999992     51.122220000000006
H      31.218850000000003     47.144999999999996     46.328019999999995
H      31.863250000000001     45.400899999999993     46.286720000000003
H      34.521350000000005     43.321099999999994     47.322619999999993
H      32.321849999999998     49.900899999999986     51.001719999999999
H      33.037649999999999     48.592700000000001     51.767019999999995
H      32.257949999999994     45.748799999999989     52.657119999999999
H      31.104850000000006     44.770699999999998     53.021419999999992
H      32.998250000000006     44.267899999999997     53.267019999999995
H      32.440249999999999     34.499599999999994     51.257119999999993
H      31.799450000000000     35.065399999999997     48.798919999999995
H      36.778849999999998     38.421299999999995     41.929319999999990
H      34.629450000000006     37.104100000000003     42.444719999999990
H      36.665150000000004     41.566399999999994     43.035620000000002
H      33.405349999999999     35.768000000000001     44.320719999999994
H      32.189349999999997     36.207400000000000     46.307120000000005
H      38.693249999999999     45.292499999999990     50.164520000000003
H      39.801749999999998     45.275900000000000     47.717819999999996
H      39.208350000000003     43.923699999999990     46.096920000000004
H      34.043849999999999     38.429699999999997     51.650319999999994
H      33.474150000000002     36.051699999999997     52.629719999999999
H      35.771249999999995     42.793399999999998     51.096020000000003
H      36.959550000000000     41.698700000000002     52.447420000000001
H      36.614850000000004     44.105699999999999     51.203319999999998
H      38.189250000000001     43.660600000000002     51.873420000000003
H      36.822250000000004     39.501799999999989     51.943820000000002
H      37.188150000000000     38.861999999999995     50.013719999999999
H      35.884450000000001     30.697899999999997     45.259020000000000
H      25.713849999999994     32.799199999999999     37.223520000000001
H      29.738750000000003     34.810899999999990     33.634219999999999
H      28.410750000000000     35.671900000000001     38.703420000000001
H      28.056950000000001     32.354900000000001     35.596719999999998
H      33.328749999999999     37.515900000000002     37.359220000000001
H      30.211050000000000     36.759700000000002     38.022019999999998
H      31.202150000000003     38.627499999999998     36.422319999999999
H      31.937950000000001     38.671799999999998     34.776519999999998
H      33.769050000000000     36.477699999999999     34.401720000000005
H      35.372950000000003     38.084299999999999     36.765920000000001
H      31.127750000000006     31.653799999999997     33.765319999999996
H      30.954950000000004     29.963799999999999     32.976419999999997
H      35.033750000000005     31.481499999999997     33.964019999999998
H      33.350650000000002     32.147900000000000     34.681719999999999
H      31.273850000000003     33.311000000000000     31.199320000000000
H      34.181949999999993     29.561599999999991     29.270119999999995
H      29.922449999999998     32.520899999999990     29.281119999999998
H      33.698750000000004     29.998100000000001     30.858020000000003
H      35.557750000000006     28.302399999999999     24.827679999999997
H      35.566549999999999     28.729700000000001     27.357570000000003
H      30.806350000000002     30.441899999999997     22.304659999999998
H      31.911750000000005     28.164000000000001     21.643780000000000
H      33.575550000000000     27.498599999999996     23.168559999999999
H      30.113350000000004     32.598399999999998     26.560809999999996
H      29.136850000000003     32.862200000000001     23.686329999999998
H      29.080450000000006     30.993000000000002     31.084420000000001
H      29.353749999999998     32.254199999999990     32.516620000000003
H      36.263650000000005     37.059599999999996     35.249620000000000
H      39.411449999999995     34.404899999999998     39.167819999999999
H      39.841150000000006     33.529100000000000     42.074719999999999
H      42.136250000000004     34.719600000000000     39.279220000000002
H      43.694449999999996     32.300799999999995     44.845019999999998
H      45.550450000000005     29.137000000000000     42.915719999999993
H      47.652349999999998     35.377299999999998     36.804920000000003
H      45.470749999999995     35.797199999999989     35.816820000000000
H      43.413950000000000     35.624499999999991     37.246219999999994
H      47.802450000000000     30.216699999999996     41.004219999999989
H      47.877549999999992     29.587199999999996     42.689019999999992
H      41.052450000000000     30.143900000000002     38.984220000000001
N      38.789350000000006     26.446300000000001     39.422620000000002
N      39.874550000000006     30.360199999999999     35.567619999999998
N      30.924050000000001     45.999099999999991     50.157719999999998
N      32.298650000000002     35.739300000000000     49.453920000000004
O      31.974050000000005     32.025999999999996     37.889720000000004
O      32.534350000000003     28.487800000000000     54.356220000000000
O      37.241549999999997     28.912799999999990     35.969119999999997
O      33.812650000000005     24.014499999999998     41.139320000000005
O      33.709750000000000     28.900999999999996     36.946220000000004
O      37.028150000000004     43.033899999999996     44.634619999999998
O      35.914350000000006     33.274799999999999     36.324719999999999
O      26.226650000000006     32.902099999999990     40.378819999999990
O      28.445150000000005     31.495599999999996     24.672809999999998
O      50.286150000000006     34.015599999999999     38.139919999999996
O      40.161050000000003     32.917599999999993     45.000920000000001
O      50.061350000000004     31.160699999999991     41.176020000000001
