35

C      37.883709999999994     36.931349999999995     38.294799999999995
C      38.660310000000003     35.945850000000000     39.182300000000012
C      41.824410000000000     37.901149999999994     36.068300000000008
C      38.380809999999997     37.620549999999994     36.872200000000007
C      40.036909999999999     36.035350000000001     38.939999999999998
C      40.445210000000003     38.572749999999992     36.024500000000003
C      41.928910000000002     36.778449999999999     37.019200000000012
C      39.861110000000004     37.309249999999992     36.654400000000010
C      40.682009999999991     36.739950000000000     37.779300000000006
C      36.785450000000004     37.483449999999998     38.881000000000000
C      36.288640000000001     37.047649999999990     40.235399999999998
C      36.674619999999997     35.686850000000000     40.809899999999999
C      38.036210000000004     35.417850000000001     40.380100000000013
C      35.974470000000004     38.599149999999995     38.141000000000005
C      34.536560000000001     38.816049999999997     38.363599999999991
C      34.114139999999999     38.407350000000001     39.713600000000000
C      34.922370000000001     37.630049999999990     40.623100000000008
C      36.320450000000001     39.260549999999995     36.955800000000011
C      37.726910000000004     38.973849999999999     36.520600000000002
C      38.587910000000001     40.045349999999999     36.058599999999998
C      40.008109999999995     39.943749999999994     35.863800000000012
C      38.996610000000004     36.737349999999999     35.525200000000012
H      42.647610000000000     38.322449999999996     35.397300000000001
H      40.923909999999999     35.391549999999995     39.609399999999994
H      42.863709999999998     36.355550000000001     37.408400000000000
H      36.122750000000003     35.075249999999997     41.658099999999990
H      38.534309999999998     34.776550000000000     41.175800000000010
H      33.875410000000002     39.278849999999998     37.721900000000005
H      33.136290000000002     38.241349999999997     40.239300000000000
H      34.570779999999999     37.338649999999994     41.529700000000005
H      35.738170000000004     40.064850000000000     36.719700000000003
H      38.172809999999998     41.223450000000000     35.663499999999999
H      40.402909999999999     40.813049999999990     35.246300000000005
H      38.913310000000003     37.106349999999992     34.341900000000010
H      39.660510000000002     35.832450000000001     35.741800000000012
