6

C      37.597749999999991     38.324549999999988     37.717349999999996
C      38.270549999999986     37.829449999999994     38.776849999999996
H      36.592150000000004     38.026449999999997     37.750250000000001
H      37.885149999999996     38.927149999999997     36.756050000000002
H      39.407849999999996     37.932050000000004     38.667649999999995
H      37.780549999999991     37.072850000000003     39.243949999999998
