5

C      38.082899999999988     38.226149999999997     38.262199999999993
H      37.796499999999995     37.230550000000001     38.709199999999996
H      37.072400000000002     38.317750000000004     38.871300000000005
H      38.927599999999998     38.769449999999999     38.886399999999995
H      38.307500000000005     38.087250000000004     37.113600000000005
