5

C      37.703749999999999     38.292199999999994     38.067599999999992
H      38.771749999999997     37.953300000000013     38.275499999999994
H      37.575050000000005     37.780000000000001     37.074100000000001
H      37.396149999999992     37.277700000000010     38.473999999999990
H      37.228250000000003     38.722299999999990     38.925899999999999
