209

C      40.977649999999997     42.806249999999991     43.134749999999997
C      41.366250000000001     41.486849999999990     43.685450000000003
C      46.038150000000002     33.988050000000001     38.017749999999999
C      41.670050000000003     43.272449999999999     41.936750000000004
C      46.818550000000002     34.511550000000000     36.981349999999992
C      45.502850000000002     34.550450000000005     39.231749999999998
C      42.493150000000000     40.742550000000001     42.956249999999997
C      46.984549999999999     37.097650000000002     35.958049999999993
C      46.148949999999999     38.233550000000001     36.226649999999999
C      43.133450000000003     42.596550000000001     39.611049999999999
C      44.875950000000003     36.992650000000005     40.256750000000004
C      43.982450000000000     39.212850000000003     40.760249999999999
C      44.516350000000003     40.410649999999997     38.416350000000001
C      46.765250000000002     36.025049999999993     36.942350000000005
C      42.685749999999999     42.684749999999994     40.942250000000001
C      45.537149999999997     36.023150000000001     39.162149999999997
C      43.950650000000003     41.284450000000000     39.426349999999999
C      44.552449999999993     38.246950000000005     39.697150000000001
C      43.015450000000001     41.356050000000003     41.726849999999999
C      45.441050000000004     38.159350000000003     37.456150000000001
C      43.589950000000002     40.576850000000000     40.666450000000005
C      44.846249999999998     38.965949999999999     38.477650000000004
C      45.970150000000004     36.713549999999998     37.945350000000005
C      42.591549999999998     39.262349999999998     43.044450000000005
C      43.398149999999994     38.533449999999995     41.983850000000004
C      43.564950000000003     37.154450000000004     42.373350000000002
C      44.311050000000002     36.386450000000004     41.458950000000002
C      44.367550000000001     34.955449999999999     41.505849999999995
C      44.758550000000000     34.098050000000001     40.443350000000002
C      39.825350000000000     43.415649999999999     43.716149999999999
C      39.249450000000003     42.879750000000008     44.967750000000002
C      39.920250000000003     41.717950000000009     45.461249999999993
C      40.821349999999995     40.689150000000005     44.831849999999996
C      41.207250000000002     39.414350000000006     45.260049999999993
C      41.952249999999999     38.848050000000001     44.222650000000002
C      46.120649999999991     39.690450000000006     35.474849999999996
C      44.650949999999995     40.948250000000002     36.970149999999997
C      41.254149999999996     44.398850000000003     41.100650000000002
C      46.067649999999993     40.787749999999988     36.580449999999999
C      44.156849999999999     42.551250000000003     36.986049999999992
C      37.160150000000002     41.751350000000002     35.513950000000001
C      37.156050000000000     42.642950000000006     34.403350000000003
C      37.647950000000002     43.081150000000001     35.721250000000005
C      35.925650000000005     40.246249999999989     33.501650000000005
C      35.723750000000003     38.799650000000000     33.364649999999997
C      36.521450000000002     37.666450000000005     34.215550000000000
C      36.400350000000003     41.395350000000001     34.239350000000002
C      34.652450000000002     39.621450000000003     33.031150000000004
C      39.187550000000002     43.425550000000001     36.151249999999997
C      40.187350000000002     42.386350000000000     36.485950000000003
C      40.405549999999998     42.036450000000009     37.849250000000005
C      41.620449999999998     42.147250000000007     37.097649999999994
C      36.780349999999999     44.042549999999999     36.595449999999992
C      37.746650000000002     45.512450000000008     36.842449999999999
C      39.002650000000003     44.727150000000002     36.721449999999997
C      34.803449999999998     38.194749999999999     32.315350000000002
C      35.197749999999999     37.990950000000005     30.784250000000000
C      41.466850000000001     42.703250000000004     35.603949999999998
C      39.720050000000001     45.045450000000010     35.537449999999993
C      42.677550000000004     42.985850000000006     36.756849999999993
C      39.690150000000003     44.949950000000008     38.221949999999993
C      32.108850000000004     40.034250000000000     40.244450000000001
C      28.841549999999998     44.719850000000001     34.079850000000000
C      33.319850000000002     39.783850000000001     41.044150000000002
C      28.901150000000001     43.289750000000005     33.560249999999996
C      34.394950000000001     37.914050000000003     38.879249999999999
C      29.534250000000000     44.804649999999995     35.207349999999991
C      33.492850000000004     40.746150000000007     39.955749999999995
C      30.645949999999999     40.113650000000000     35.200550000000000
C      33.194450000000003     37.383749999999999     38.617449999999998
C      33.258450000000003     40.112850000000002     33.967849999999991
C      29.733850000000004     39.616250000000001     34.431150000000002
C      32.760249999999999     40.990050000000004     36.421049999999994
C      33.776650000000004     38.089550000000003     37.488350000000004
C      30.165150000000004     43.497350000000004     35.485750000000003
C      31.179949999999998     39.005949999999999     34.682450000000003
C      32.271750000000004     42.224250000000005     36.716650000000001
C      33.625050000000002     38.609649999999995     36.013850000000005
C      29.462150000000001     42.508550000000007     34.577150000000003
C      33.420150000000000     39.939150000000005     35.618650000000002
C      29.625149999999998     41.018949999999997     34.865450000000003
C      32.395750000000000     40.556350000000002     38.983550000000001
C      31.817349999999998     41.196750000000002     37.620049999999999
C      28.968450000000004     38.756750000000004     33.704750000000004
C      33.933050000000001     38.507050000000000     41.463250000000002
C      34.862850000000002     37.912450000000000     40.461649999999999
C      33.787050000000001     42.215049999999998     40.193449999999999
C      32.702849999999998     38.999249999999996     34.809049999999999
C      33.160550000000001     37.362750000000005     42.102550000000001
C      38.180550000000004     37.831150000000001     39.926050000000004
C      37.581550000000000     38.359150000000000     38.605950000000000
C      36.601450000000000     41.390350000000005     40.230950000000000
C      37.188949999999998     40.861350000000009     39.239150000000002
C      38.817850000000000     38.729250000000000     41.113050000000001
C      36.943649999999998     39.791550000000001     38.263850000000005
C      40.105550000000001     39.228750000000005     40.838450000000002
C      39.076650000000001     40.206949999999999     40.973849999999999
C      38.116550000000004     41.153950000000002     40.327449999999999
C      37.651150000000001     36.579750000000004     40.274349999999998
C      37.755949999999999     34.261650000000003     41.059550000000002
C      37.021649999999994     36.124250000000004     39.016750000000002
C      36.795050000000003     37.264950000000006     38.186650000000000
C      38.915750000000003     38.022650000000006     42.484749999999998
C      38.995049999999999     36.378850000000000     42.237850000000002
C      37.851050000000001     35.832750000000004     41.375750000000004
C      36.821149999999996     35.070449999999994     42.271550000000005
C      35.290449999999993     42.035950000000007     40.890550000000005
C      31.794350000000001     35.846850000000003     39.881250000000001
C      35.245049999999999     31.631850000000000     32.238449999999993
C      35.129049999999999     30.816250000000004     31.057649999999995
C      37.546849999999999     32.470249999999993     33.264550000000000
C      38.550750000000001     32.341750000000005     29.892949999999992
C      36.149349999999998     32.592649999999992     32.888749999999995
C      36.194949999999999     30.664449999999999     30.121450000000003
C      37.079050000000002     33.447250000000004     31.902149999999992
C      38.681150000000002     33.960950000000004     30.023349999999994
C      37.316850000000002     32.927849999999992     30.492549999999994
C      37.336549999999995     31.467850000000006     29.935749999999992
C      35.562249999999999     33.666849999999997     33.967950000000002
C      36.616450000000000     34.992750000000001     33.848949999999995
C      36.872149999999998     35.074850000000005     32.319050000000004
C      33.990250000000003     30.890550000000005     32.141049999999993
C      35.700650000000003     36.276350000000001     34.320050000000002
H      43.460650000000001     33.334450000000004     42.946649999999998
H      32.241050000000001     43.896350000000005     35.338750000000005
H      35.532450000000004     43.124050000000004     41.225349999999999
H      39.035049999999998     44.213650000000008     43.551549999999992
H      46.378650000000000     32.876850000000005     37.892749999999999
H      47.290849999999992     33.874949999999998     36.203650000000003
H      47.926949999999998     37.008650000000003     35.412249999999993
H      42.935049999999997     43.406450000000000     38.791250000000005
H      43.482849999999992     36.480450000000005     43.253150000000005
H      44.783549999999998     33.108949999999993     40.568950000000001
H      38.615949999999991     43.505849999999995     45.457149999999999
H      39.604550000000003     41.207250000000002     46.383050000000004
H      40.886350000000000     38.713249999999995     45.974550000000001
H      41.977450000000005     37.613950000000003     44.377150000000000
H      47.253849999999993     39.620450000000005     34.916049999999991
H      45.327249999999992     39.719249999999995     34.656150000000004
H      46.664349999999999     40.452950000000008     37.333750000000002
H      46.445950000000003     41.825949999999999     35.797650000000004
H      44.716149999999999     43.264949999999999     37.621150000000000
H      43.868549999999999     40.341349999999998     36.254249999999999
H      37.105849999999997     37.903050000000000     33.438549999999999
H      36.999549999999999     37.962250000000004     35.080749999999995
H      40.068749999999994     41.390949999999997     38.792250000000003
H      35.811350000000004     44.132050000000000     36.247650000000000
H      36.817750000000004     43.832749999999997     37.632950000000001
H      37.503050000000002     45.863549999999989     35.467249999999993
H      37.488650000000000     46.349149999999995     37.461849999999998
H      34.643549999999998     38.534350000000003     30.039850000000001
H      33.939450000000001     37.539350000000006     32.575250000000004
H      35.099350000000001     36.996850000000002     30.336749999999995
H      36.278549999999996     37.912050000000001     30.751750000000001
H      41.644749999999995     41.742550000000001     35.067349999999998
H      40.551549999999999     45.758950000000006     35.850149999999992
H      39.395549999999993     45.661549999999991     34.645149999999994
H      42.443950000000001     43.967249999999993     37.156250000000000
H      44.694949999999992     42.555050000000001     36.046849999999999
H      39.766849999999998     44.097550000000005     39.042749999999998
H      40.845849999999999     45.193249999999999     37.983850000000004
H      39.496949999999998     45.858550000000001     38.647350000000003
H      28.073050000000002     45.541150000000002     33.681150000000002
H      28.327750000000002     42.934850000000004     32.573449999999994
H      29.741350000000004     45.799050000000001     35.767350000000000
H      30.996150000000000     40.532950000000007     37.261250000000004
H      29.313350000000000     37.902150000000006     33.006650000000000
H      28.653750000000002     37.971350000000001     34.553750000000001
H      34.531150000000004     38.820950000000003     42.358750000000001
H      35.812850000000005     38.641350000000003     40.348250000000000
H      35.398350000000001     37.044850000000004     40.759550000000004
H      33.635249999999999     42.784050000000001     39.333550000000002
H      33.021850000000001     42.598649999999999     41.020050000000005
H      32.400750000000002     40.835549999999998     33.615449999999996
H      32.355049999999999     37.582650000000001     43.058050000000001
H      32.468249999999998     37.294850000000004     41.263050000000000
H      33.714250000000000     36.465450000000004     42.509550000000004
H      32.421849999999999     30.085750000000004     32.853650000000002
H      35.894750000000002     39.818650000000005     38.780450000000002
H      36.765349999999998     40.069650000000003     37.106749999999998
H      40.770350000000001     38.514050000000005     40.909950000000002
H      36.118850000000002     35.646550000000005     38.951450000000001
H      36.463349999999998     37.626550000000002     37.265650000000001
H      37.853650000000002     38.271050000000002     42.608750000000001
H      39.530449999999995     38.658950000000004     43.312150000000003
H      38.677949999999996     35.774450000000002     43.015250000000002
H      39.787150000000004     36.301550000000006     41.478349999999999
H      34.962650000000004     41.586649999999999     41.726350000000004
H      30.964449999999999     34.225449999999995     40.850650000000002
H      38.266149999999996     31.689449999999997     33.497450000000001
H      39.470649999999992     31.816050000000004     30.446150000000003
H      36.105350000000001     29.650850000000005     29.616949999999996
H      35.498249999999999     33.099750000000000     34.810350000000000
H      34.538750000000000     33.909150000000004     33.762950000000004
H      37.420949999999998     35.074650000000005     34.567150000000005
H      37.815550000000002     35.704049999999995     31.785449999999997
H      35.993150000000000     35.244349999999997     31.668249999999993
H      34.821649999999998     36.478850000000001     33.601849999999992
H      35.619149999999998     35.694250000000004     35.491750000000003
H      37.801449999999996     33.070949999999996     34.100249999999996
N      31.525849999999998     43.451250000000009     36.081549999999993
O      41.274449999999995     45.305150000000005     40.409550000000003
O      32.321050000000000     36.151850000000003     38.811850000000000
O      36.101149999999997     35.520650000000003     43.087150000000001
O      37.656250000000000     33.524150000000006     40.157650000000004
O      31.071449999999999     35.438249999999996     40.778249999999993
O      33.378349999999998     29.750050000000002     32.412950000000002
O      39.531549999999996     34.644549999999995     30.280249999999995
S      44.592449999999999     34.010750000000002     43.065049999999999
