149

C      31.828799999999994     40.554749999999999     40.424299999999988
C      30.605800000000002     38.464529999999996     41.625800000000005
C      34.639199999999995     34.112304000000002     39.152400000000007
C      33.691800000000001     34.930890000000005     38.590700000000005
C      29.502600000000001     37.986440000000002     42.696400000000004
C      31.947799999999994     30.417999999999996     43.564299999999996
C      31.467699999999994     37.383089999999996     41.351599999999998
C      34.565399999999997     33.467163999999997     40.521999999999998
C      32.502099999999999     35.175010000000000     39.239600000000003
C      33.824300000000001     31.415100000000010     42.575999999999993
C      29.579599999999992     31.827299999999997     44.143899999999995
C      29.061300000000003     33.190993399999996     44.176800000000007
C      29.078099999999999     35.524370000000005     43.469099999999997
C      30.993200000000002     31.563299999999984     43.786099999999998
C      29.798800000000000     36.299970000000002     42.500300000000003
C      29.742100000000001     34.158057999999997     43.387300000000003
C      30.838500000000003     36.100629999999995     41.672000000000004
C      33.308100000000003     33.517395999999998     41.208400000000005
C      33.012699999999995     32.499600000000001     42.187300000000000
C      32.340400000000002     34.452590000000001     40.439399999999999
C      31.653099999999995     32.483300000000007     42.749500000000005
C      30.820800000000006     33.651151999999996     42.427700000000009
C      31.175699999999999     34.645350000000008     41.289599999999993
C      35.461899999999993     32.606999999999999     41.318999999999988
C      35.307600000000001     31.604900000000001     42.363900000000008
C      29.463700000000003     40.742769999999993     41.123499999999993
C      28.377500000000005     39.606879999999990     41.202100000000002
C      28.265100000000004     38.424070000000000     41.873399999999997
C      30.595400000000005     39.933949999999996     41.179599999999994
C      32.657200000000003     39.786780000000007     36.425500000000007
C      38.589699999999993     44.659399999999991     36.981600000000007
C      32.265499999999996     38.839280000000002     35.393999999999998
C      36.674499999999995     42.785820000000001     36.434699999999992
C      38.124499999999998     43.029579999999996     36.733499999999999
C      35.178100000000001     43.325400000000002     40.973999999999997
C      36.373599999999996     44.201200000000000     41.177299999999995
C      35.582799999999992     42.704930000000004     37.402899999999995
C      38.432900000000004     43.376599999999996     38.093499999999999
C      34.821200000000005     42.514930000000007     39.769900000000000
C      37.545599999999993     44.159000000000006     40.379500000000000
C      36.042200000000001     42.837009999999992     38.838299999999997
C      37.239699999999999     43.543400000000005     39.217599999999990
C      36.501299999999993     42.697550000000007     34.909600000000005
C      37.272200000000005     42.654430000000005     33.692399999999999
C      38.716500000000003     43.092140000000001     33.297900000000006
C      39.202200000000005     42.488199999999992     35.854300000000002
C      33.907700000000006     43.155659999999997     41.840600000000002
C      34.152799999999999     44.028700000000001     42.947899999999997
C      35.216500000000003     44.917999999999992     43.364799999999995
C      36.449599999999997     44.927800000000005     42.516300000000008
C      35.200399999999995     42.246309999999994     34.326100000000004
C      35.143000000000001     42.322649999999996     32.820500000000003
C      32.146200000000000     36.360389999999995     36.582500000000003
C      36.439300000000003     42.722620000000006     32.436100000000003
C      34.182300000000005     42.121709999999993     35.368400000000001
C      34.320900000000002     42.367500000000007     36.827000000000005
C      33.305799999999998     41.938209999999998     37.912499999999994
C      33.631399999999999     41.942149999999998     39.394399999999997
C      32.626699999999992     42.590999999999994     41.715600000000002
C      32.656599999999997     41.651070000000004     40.594299999999997
C      40.420799999999993     40.155319999999989     34.723199999999999
C      39.626199999999997     42.782709999999994     34.555899999999994
C      39.706200000000003     41.340100000000007     35.183999999999997
C      39.045900000000003     44.628200000000007     40.746000000000002
C      38.865099999999998     45.588700000000003     42.151299999999992
C      37.631899999999995     45.351399999999998     43.373300000000000
C      40.191999999999993     42.187410000000000     33.271599999999992
C      39.835099999999997     43.256299999999996     40.812599999999989
C      39.119700000000002     41.926940000000002     41.431299999999993
C      43.784600000000005     38.883309999999994     40.020900000000005
C      42.877200000000002     37.951310000000007     39.087800000000009
C      39.844099999999997     37.341070000000002     42.286600000000000
C      42.963700000000003     39.237939999999995     41.154000000000003
C      41.566200000000002     37.504750000000001     39.347400000000000
C      40.684099999999994     38.348290000000006     42.621500000000005
C      41.696799999999996     38.499710000000007     41.545800000000007
C      40.935300000000005     37.789739999999995     40.409500000000001
C      45.082500000000003     38.971140000000005     39.506400000000006
C      45.609200000000001     38.434770000000000     38.206200000000003
C      44.685599999999994     37.670670000000001     37.146499999999996
C      43.297300000000000     37.490700000000004     37.773400000000002
C      46.397100000000002     39.605459999999994     40.166300000000000
C      43.249499999999998     41.901019999999988     41.754899999999999
C      46.925300000000000     38.834389999999999     37.884200000000000
C      47.429600000000001     39.536299999999997     39.065500000000007
C      42.859600000000000     40.551969999999997     41.899199999999993
C      42.259299999999996     41.552019999999999     42.908899999999996
C      40.975999999999992     41.124309999999994     43.382200000000005
C      40.813500000000005     39.400580000000005     43.898400000000002
C      45.149799999999999     37.319339999999997     35.860800000000005
C      40.014000000000003     40.778360000000006     42.103100000000005
H      35.659999999999997     34.298380000000002     38.626399999999997
H      33.792100000000005     35.508629999999997     37.502900000000004
H      29.458700000000000     38.343609999999998     43.595300000000002
H      31.556699999999999     29.601800000000008     43.921499999999995
H      32.372399999999999     37.456180000000003     40.786700000000003
H      29.049900000000001     30.894799999999986     44.475799999999992
H      28.022600000000004     33.406018000000003     44.609299999999998
H      28.408400000000000     35.834840000000000     44.149099999999997
H      36.685599999999994     32.176699999999990     41.011699999999990
H      36.162599999999998     31.062699999999992     42.771599999999992
H      29.400700000000001     41.907899999999998     40.804800000000007
H      27.577000000000005     40.096609999999998     40.541300000000000
H      27.738199999999999     37.693160000000006     41.474200000000003
H      44.681799999999996     42.421189999999996     40.843899999999998
H      33.137200000000000     38.713129999999992     34.955700000000000
H      31.305300000000003     39.018020000000007     35.080800000000004
H      38.861299999999993     43.840000000000003     32.554699999999997
H      33.252400000000002     44.233699999999999     43.306699999999999
H      35.006200000000000     45.666200000000003     44.013899999999992
H      34.163700000000006     42.083969999999994     32.170800000000000
H      36.647299999999994     42.850780000000000     31.353900000000003
H      33.326799999999999     41.671199999999999     34.993800000000000
H      32.227600000000002     41.920119999999997     37.838299999999997
H      31.678799999999995     42.593409999999992     42.438700000000004
H      32.100000000000001     39.976179999999999     39.552799999999998
H      40.959500000000006     39.491979999999998     35.354300000000002
H      39.385600000000004     42.922520000000006     38.538400000000003
H      39.907400000000003     39.585740000000001     33.920600000000000
H      41.489599999999996     40.940160000000006     33.665700000000008
H      39.595899999999993     45.070399999999992     39.820200000000007
H      39.763300000000001     45.975700000000003     42.797199999999997
H      38.431200000000004     46.398199999999989     41.657899999999998
H      38.088900000000002     45.067699999999988     44.334099999999992
H      37.097499999999997     46.271199999999993     43.699800000000003
H      39.855600000000003     42.934049999999999     39.789700000000003
H      40.864699999999999     43.186300000000003     41.315400000000004
H      39.011899999999997     41.460030000000003     40.506000000000007
H      38.142599999999995     42.043480000000002     41.860900000000008
H      38.967200000000005     36.851839999999996     43.119199999999999
H      41.042999999999999     36.891320000000007     38.692000000000000
H      42.993400000000001     36.601889999999997     37.194400000000009
H      47.201300000000003     38.417980000000000     36.901400000000002
H      48.422999999999995     39.955820000000003     39.236499999999999
H      40.472500000000004     41.743839999999992     44.120099999999994
H      41.782200000000003     39.267170000000007     44.591099999999997
H      39.928799999999995     39.181929999999994     44.646099999999997
H      40.589100000000002     40.380889999999994     41.377699999999990
H      39.181999999999995     40.218379999999996     42.417999999999992
N      33.165700000000001     30.219100000000015     43.134300000000003
N      39.762500000000003     37.178660000000008     40.887700000000002
O      32.810400000000001     40.177569999999989     37.460699999999996
O      38.878899999999994     45.676899999999989     36.671500000000002
O      40.939000000000000     41.612859999999998     32.520700000000005
O      32.161999999999999     37.072440000000000     35.669900000000005
O      45.330000000000005     36.853600000000000     34.796200000000006
O      44.247700000000002     42.746589999999998     41.702799999999996
O      46.339600000000004     40.440860000000001     40.982199999999999
S      31.199300000000001     36.418199999999999     38.229700000000001
