58

C      36.588999999999999     33.305899999999994     33.129499999999993
C      36.165100000000002     33.565500000000000     31.660499999999999
C      38.516599999999997     36.507800000000003     35.436999999999998
C      37.503200000000000     35.483800000000002     35.682400000000001
C      39.011900000000004     42.895600000000002     42.861799999999995
C      39.608800000000002     37.226600000000005     36.208599999999997
C      37.084700000000005     37.756500000000003     37.395800000000001
C      40.094100000000005     42.437100000000001     41.946700000000000
C      36.538000000000004     42.486900000000006     39.649199999999993
C      40.797100000000000     40.854300000000009     39.344399999999993
C      36.979400000000005     39.922299999999993     39.350699999999996
C      39.679099999999998     37.883300000000006     37.381000000000000
C      40.668200000000006     39.447500000000005     39.176300000000005
C      37.764100000000006     42.277900000000002     40.372000000000000
C      38.387400000000007     38.388099999999994     37.953299999999999
C      38.774299999999997     42.723900000000000     41.427100000000003
C      38.356099999999998     39.544100000000000     38.835099999999997
C      39.585300000000004     40.125700000000009     39.258999999999993
C      35.861399999999996     38.508600000000001     37.627199999999988
C      35.768000000000008     39.396600000000007     38.804300000000005
C      41.342199999999998     41.910100000000000     41.828499999999998
C      41.788500000000006     41.864699999999999     40.183799999999998
C      37.023899999999998     36.647000000000006     36.405299999999997
C      35.542800000000007     36.823599999999999     36.000499999999995
C      34.857500000000009     38.159300000000002     36.491099999999989
C      38.726799999999997     42.430300000000003     44.240500000000004
C      37.834599999999995     34.451799999999992     36.877600000000001
C      36.749200000000009     34.743899999999996     34.678300000000000
C      36.827600000000004     41.217500000000001     40.123899999999992
C      36.173499999999997     40.498800000000003     41.545099999999998
C      33.791200000000003     38.889400000000009     36.373399999999997
H      42.067600000000006     38.035700000000006     38.208099999999995
H      36.828800000000001     34.266599999999997     31.205399999999997
H      35.984900000000003     32.659400000000005     30.941899999999997
H      35.581699999999998     34.363799999999998     31.417400000000001
H      38.506600000000006     36.474899999999991     34.317599999999992
H      40.609000000000002     36.923400000000001     35.742300000000000
H      36.583800000000004     43.340599999999995     38.998100000000001
H      34.694700000000005     39.795100000000005     39.228100000000005
H      42.100100000000005     42.488399999999999     42.328700000000005
H      41.389699999999998     41.059699999999992     42.452299999999994
H      41.604500000000009     42.920000000000002     39.827700000000000
H      43.007199999999997     41.805300000000003     40.076299999999996
H      37.976599999999998     35.002000000000010     37.858699999999999
H      35.182500000000005     36.474299999999999     35.060400000000001
H      35.181699999999992     36.095900000000000     36.601199999999992
H      37.093899999999998     33.660899999999998     37.064299999999989
H      38.913500000000006     33.961900000000000     36.628700000000002
H      35.757100000000001     34.580100000000002     35.345099999999995
H      36.203600000000002     35.194699999999997     33.701599999999999
H      37.242799999999995     40.320599999999999     41.782799999999995
H      35.664999999999999     39.698900000000009     41.169899999999991
H      35.529299999999999     41.047600000000003     42.385499999999993
H      32.992800000000003     38.537199999999999     35.755599999999994
H      33.627600000000001     39.953100000000006     36.714500000000001
N      40.966500000000003     38.129099999999994     38.273499999999999
O      37.055600000000005     33.212699999999998     34.243800000000000
O      38.026000000000003     42.010300000000001     45.058100000000003
