56

C      36.816350000000000     39.570949999999996     38.670549999999992
C      37.860950000000010     39.654250000000005     37.424949999999995
C      40.528250000000007     40.365749999999998     41.445050000000009
C      37.067850000000000     40.403350000000003     40.100049999999996
C      39.339450000000006     40.097050000000003     37.886949999999999
C      39.177650000000007     40.286749999999998     41.809350000000009
C      40.674450000000000     40.420749999999998     39.973349999999996
C      38.445750000000004     40.654049999999998     40.523849999999996
C      39.346750000000007     40.242349999999995     39.329549999999998
C      35.816050000000004     38.428249999999998     38.476849999999999
C      35.783050000000003     37.505450000000003     37.323949999999996
C      36.859649999999995     37.522550000000003     36.314149999999998
C      37.906149999999997     38.636549999999993     36.350149999999999
C      34.658150000000006     38.466250000000002     39.319950000000006
C      33.411650000000002     37.844450000000002     38.998350000000002
C      33.274050000000003     37.053550000000001     37.761350000000007
C      34.550950000000007     36.624749999999999     37.217050000000000
C      37.040649999999999     40.846450000000004     38.243750000000006
C      35.759850000000000     40.295850000000002     40.912449999999993
C      37.276150000000001     36.319050000000004     35.586250000000007
C      38.671650000000007     36.184550000000002     35.186850000000007
C      39.260449999999999     37.426749999999998     34.683549999999997
C      38.709550000000000     38.748150000000003     35.075550000000007
C      40.332049999999995     39.594049999999996     36.778850000000006
C      39.922849999999997     39.615850000000002     35.093450000000004
C      42.019650000000006     40.244949999999996     39.393150000000006
C      37.847849999999994     39.042749999999991     33.962349999999986
C      42.872950000000010     38.742449999999998     40.116550000000004
C      34.871050000000004     35.393850000000000     36.178449999999998
C      34.527250000000002     39.197949999999999     40.786349999999999
C      36.504150000000003     35.051150000000000     36.136849999999995
H      41.208349999999996     40.155149999999992     42.229050000000001
H      38.901249999999997     40.424050000000001     42.869649999999993
H      32.263050000000007     36.331949999999999     37.415050000000008
H      36.630249999999997     41.836250000000000     38.508049999999997
H      38.903750000000002     35.237549999999999     34.924349999999990
H      40.304850000000002     37.403349999999996     34.322950000000006
H      40.449249999999999     38.491450000000000     36.951750000000004
H      41.191050000000004     40.143549999999991     36.809950000000001
H      39.916450000000005     40.566649999999996     34.533150000000006
H      42.646650000000001     41.049450000000000     39.796949999999995
H      42.130950000000006     40.137149999999998     38.328550000000007
H      38.648050000000005     38.866250000000001     33.130350000000007
H      36.701750000000004     38.757750000000001     33.887050000000002
H      42.582250000000009     37.901850000000003     39.356449999999995
H      42.918250000000008     38.606349999999992     41.040050000000008
H      43.736949999999993     38.921650000000000     39.708849999999998
H      36.635550000000002     34.163750000000000     35.565650000000005
H      34.745450000000005     35.980550000000001     35.142049999999998
H      33.800950000000007     40.010750000000002     40.908850000000001
H      32.463750000000005     37.990050000000004     39.755549999999999
H      34.253550000000004     38.428150000000002     41.627549999999999
H      34.228150000000007     34.561950000000003     36.184550000000002
H      36.964350000000003     34.973950000000002     37.110849999999999
H      40.649850000000008     39.070750000000004     34.433549999999997
O      35.865250000000003     41.016849999999991     41.800650000000005
