10

C      37.107099999999988     37.976649999999992     36.806799999999996
C      38.361100000000000     37.482149999999990     36.789099999999998
C      38.849999999999994     37.280250000000009     38.238700000000001
C      38.979599999999998     38.418949999999995     39.045100000000005
H      36.524599999999992     38.094749999999991     37.754999999999995
H      36.507100000000001     38.064549999999997     35.894100000000002
H      38.786899999999989     37.159450000000007     35.946600000000004
H      39.466899999999988     36.550250000000005     38.404800000000002
H      38.523800000000001     39.449749999999995     38.792299999999997
H      39.492899999999999     38.123050000000006     40.105899999999998
