63

C      37.468899999999991     38.634149999999991     34.273305000000001
C      37.672300000000000     37.952750000000009     41.440605000000005
C      38.707199999999993     37.853050000000010     34.843905000000007
C      38.296900000000001     36.873450000000005     40.604205000000007
C      36.862500000000004     39.059850000000012     40.875505000000004
C      39.578699999999991     36.461750000000009     36.890105000000005
C      35.440099999999994     39.494950000000003     37.266805000000005
C      39.311899999999994     36.118850000000009     38.359805000000009
C      35.635899999999999     40.818849999999998     37.759405000000008
C      38.671299999999988     37.548650000000009     36.301205000000010
C      36.407299999999999     38.840950000000007     36.385204999999999
C      38.473499999999994     37.056950000000001     39.146805000000008
C      36.753799999999998     38.973550000000003     39.437004999999999
C      37.567699999999995     38.126450000000006     37.096705000000007
C      37.598399999999998     38.133150000000001     38.605204999999998
C      37.630999999999993     38.912349999999989     32.956805000000003
C      38.874400000000001     38.677250000000001     32.312965000000005
C      39.766899999999993     37.603250000000003     32.860905000000002
C      39.548200000000001     36.902850000000001     34.072105000000008
C      39.965399999999988     35.593949999999992     34.498004999999999
C      40.146599999999999     35.614050000000006     35.944405000000003
C      37.911999999999992     38.195950000000011     42.810605000000002
C      39.065800000000003     37.763850000000005     43.375104999999998
C      39.572699999999998     36.569350000000000     42.625705000000011
C      39.196899999999999     36.032850000000010     41.367505000000001
C      40.239199999999997     35.190449999999998     40.580705000000009
C      39.960100000000004     34.984750000000005     38.955905000000008
C      35.652899999999995     39.708849999999998     38.699305000000010
C      36.662599999999998     41.809749999999994     38.086605000000006
C      38.616199999999999     34.411450000000002     38.754305000000002
C      38.134999999999998     41.446950000000001     38.436305000000004
C      40.771300000000004     34.442450000000008     33.837805000000003
C      39.178599999999996     39.170349999999999     30.998534999999997
C      38.397299999999994     37.778950000000009     30.891305000000003
C      39.696899999999992     37.886049999999997     44.715705000000007
H      36.074599999999990     39.699650000000005     41.501105000000010
H      36.655799999999999     39.362450000000010     32.300095000000006
H      40.639299999999992     37.213050000000010     32.225475000000003
H      40.863199999999999     35.005250000000004     36.432805000000002
H      37.526400000000002     38.985950000000003     43.402805000000001
H      40.176400000000001     39.046050000000008     44.461905000000002
H      40.326500000000003     35.908950000000004     43.113904999999995
H      39.862900000000003     34.307050000000004     41.111405000000005
H      41.383099999999992     35.154150000000001     40.845005000000008
H      40.970999999999997     34.799850000000006     38.525905000000002
H      36.646599999999999     42.580149999999989     37.354705000000010
H      36.271700000000003     42.480449999999990     38.790105000000004
H      38.657400000000003     33.419850000000011     38.232905000000002
H      38.144500000000001     34.283650000000009     39.657905000000007
H      38.481099999999998     40.273849999999996     38.266705000000009
H      38.856900000000003     41.825350000000000     37.653205000000007
H      38.590399999999995     42.050650000000005     39.247805000000007
H      41.628499999999995     34.832850000000008     33.189305000000004
H      40.272600000000004     34.314950000000010     32.896705000000004
H      41.083400000000005     33.650950000000009     34.486905000000007
H      40.202999999999996     38.842950000000002     30.779485000000008
H      38.627199999999995     40.004049999999992     30.635915000000004
H      40.702099999999994     37.304250000000010     44.981704999999998
H      39.270499999999991     37.560749999999999     45.790704999999996
H      34.371500000000005     38.931550000000001     37.136405000000003
H      35.649400000000000     39.509950000000003     34.347805000000001
N      36.250399999999999     38.957149999999999     35.046805000000006
O      38.233600000000003     36.903250000000000     30.209295000000004
