5

C      37.663599999999988     37.745449999999991     37.963049999999996
H      37.417499999999997     38.815950000000001     38.157750000000007
H      38.643200000000000     37.859350000000006     37.973050000000001
H      37.356800000000000     37.184049999999999     39.012149999999991
H      37.461999999999989     37.546149999999997     36.987850000000009
