41

C      36.940049999999999     33.345250000000000     40.119000000000000
C      35.877750000000006     32.958250000000000     41.042900000000003
C      38.401350000000008     36.636550000000000     39.191800000000001
C      40.218950000000007     42.692550000000004     37.380400000000009
C      38.292749999999998     36.606749999999998     37.677800000000005
C      40.049949999999995     42.146850000000008     36.080399999999997
C      38.747050000000002     37.798549999999999     40.212000000000003
C      39.628150000000005     41.644350000000003     38.347400000000007
C      38.573049999999995     38.021649999999994     37.206600000000009
C      39.505750000000006     40.726450000000000     36.241399999999999
C      39.388350000000003     40.438150000000000     40.406900000000007
C      38.878349999999998     39.161950000000004     39.666100000000000
C      39.713650000000001     41.587950000000006     39.817899999999995
C      38.866950000000003     39.168549999999996     38.233500000000006
C      39.361449999999991     40.404650000000004     37.579400000000007
C      38.818849999999998     38.380050000000004     35.880700000000004
C      39.118650000000002     39.697849999999995     35.294700000000006
C      37.807249999999996     35.441050000000004     39.841099999999997
C      37.712750000000000     34.284349999999996     39.165300000000002
C      37.427050000000008     34.298950000000005     37.657899999999998
C      38.226249999999993     35.271149999999999     36.978700000000003
C      39.900149999999996     42.764950000000006     40.632300000000001
C      40.292450000000002     42.729349999999997     34.597000000000008
C      38.083150000000003     35.357950000000002     41.384900000000002
H      34.928650000000005     32.966350000000006     40.535499999999999
H      35.480249999999998     32.816250000000004     42.089900000000000
H      37.738650000000007     34.284150000000004     41.769700000000000
H      40.403850000000006     43.830549999999995     37.656500000000008
H      38.852049999999991     37.686749999999996     41.309100000000001
H      39.342349999999996     40.381850000000007     41.427199999999999
H      38.838249999999988     37.443649999999998     35.297300000000007
H      39.180650000000000     40.194649999999996     34.381500000000003
H      36.814049999999995     33.688950000000006     37.125299999999996
H      38.019549999999995     34.959350000000008     35.964399999999998
H      41.071349999999995     43.702550000000002     34.534099999999995
H      40.395150000000001     41.978249999999996     33.738799999999998
H      39.373149999999995     43.285450000000004     34.247900000000001
H      39.234949999999998     35.291449999999998     41.416200000000003
H      37.913649999999990     36.192150000000005     42.261200000000002
O      37.118750000000006     32.169450000000005     40.402299999999997
O      40.010549999999995     43.795549999999999     41.088099999999997
