11

C      38.588754999999992     37.413649999999997     36.803099999999993
C      37.772655000000000     37.558750000000003     37.997299999999989
C      36.931975000000008     37.134649999999993     36.830099999999995
C      37.950355000000002     39.119849999999992     38.576699999999995
H      37.398125000000007     36.669449999999998     38.580599999999997
H      36.598885000000010     36.157049999999998     36.796700000000001
H      36.323144999999997     38.033450000000002     36.468800000000002
H      37.880755000000008     39.363150000000005     39.658500000000004
H      39.038354999999996     39.589349999999989     38.679100000000005
H      37.423765000000003     39.842950000000002     37.826200000000000
O      39.676855000000003     37.100250000000003     36.341499999999996
