67

C      38.891700000000000     40.171979999999998     32.365199999999994
C      33.868499999999997     33.981513000000000     38.581799999999994
C      35.310100000000006     34.553549999999994     38.996499999999997
C      38.272400000000005     38.289680000000004     39.793300000000002
C      38.574700000000007     39.670480000000005     39.407699999999998
C      37.602800000000002     39.292990000000003     34.574299999999994
C      39.002499999999998     39.712950000000006     33.700099999999992
C      37.851399999999998     37.489520000000006     38.626599999999989
C      38.460200000000000     40.418519999999994     38.125200000000000
C      37.411100000000005     37.353750000000005     36.136600000000001
C      38.092100000000002     40.211780000000005     35.607799999999997
C      37.775000000000006     38.104640000000003     37.301600000000001
C      38.134700000000009     39.575139999999998     36.925699999999999
C      38.705799999999996     37.475650000000002     41.051099999999998
C      39.269300000000001     38.308160000000001     42.030799999999992
C      39.448800000000006     39.617780000000003     41.933699999999995
C      39.354799999999997     40.171600000000005     40.505400000000002
C      39.875799999999998     41.098470000000006     31.696399999999997
C      40.965900000000005     41.523270000000004     32.496600000000001
C      41.413499999999999     40.690970000000007     33.594700000000003
C      40.460400000000007     39.690610000000007     34.087799999999994
C      38.225700000000003     36.101880000000008     41.535400000000003
C      38.637700000000009     35.371440000000007     42.666300000000000
C      38.917900000000003     36.382380000000005     43.802299999999995
C      39.312899999999999     37.769550000000002     43.321800000000003
C      37.979100000000003     35.357250000000008     40.292600000000000
C      37.684200000000004     35.993490000000008     38.984699999999997
C      37.359700000000004     35.218160000000005     37.854599999999998
C      37.091300000000004     35.783790000000003     36.477199999999996
C      39.441400000000002     35.673749999999998     44.975099999999991
C      37.601300000000009     37.862340000000003     34.866399999999999
C      36.637900000000002     39.579350000000005     33.486699999999999
C      35.006500000000003     39.141700000000007     33.526199999999996
C      38.442800000000005     34.886130000000001     36.893199999999993
C      41.960900000000009     42.464340000000007     32.060400000000001
C      36.473200000000006     33.889904000000001     38.108499999999999
H      37.952399999999997     40.112650000000002     31.951199999999993
H      35.194699999999997     34.162430000000001     40.170200000000001
H      33.680400000000006     33.921650000000000     37.341000000000001
H      35.510899999999992     35.555240000000005     38.900100000000002
H      33.658799999999999     32.878359999999994     38.740400000000001
H      33.107900000000001     34.210050000000003     39.512599999999999
H      38.758300000000006     41.465850000000003     38.174500000000002
H      38.682800000000000     41.116189999999996     35.478599999999993
H      39.821500000000000     40.258720000000004     42.623600000000003
H      39.762400000000000     40.906180000000006     39.899499999999996
H      39.415400000000005     41.404320000000006     30.725600000000000
H      42.595700000000008     40.679780000000008     33.999400000000001
H      40.977600000000010     38.880990000000004     34.606400000000001
H      38.577100000000002     34.299330000000005     42.880699999999990
H      39.898300000000006     38.277840000000005     44.053499999999993
H      38.123099999999994     34.264300000000006     40.395800000000001
H      37.196899999999999     37.086930000000002     34.131500000000003
H      36.325500000000005     35.148300000000006     35.715699999999998
H      36.710099999999997     39.386370000000007     32.378899999999994
H      36.572200000000009     40.847740000000002     33.494799999999998
H      34.875299999999996     38.467900000000000     32.806800000000003
H      34.796599999999998     38.738220000000005     34.480800000000002
H      34.227599999999995     39.896040000000006     33.486199999999997
H      39.331200000000010     35.329249999999995     36.861599999999996
H      38.539299999999997     33.995649999999998     36.190799999999996
H      42.892099999999999     41.911299999999997     31.626599999999996
H      41.697400000000002     43.121640000000006     31.116399999999999
H      42.735500000000002     42.635029999999993     33.042299999999990
H      36.928100000000001     33.110660000000010     38.789499999999997
H      36.663300000000007     33.228820000000006     37.234599999999993
O      40.447500000000005     35.374300000000005     45.274400000000000
