55

C      34.138149999999996     38.224949999999993     34.296750000000003
C      40.547150000000002     38.088050000000010     42.104250000000008
C      40.969149999999999     36.841750000000005     41.459350000000015
C      34.183749999999996     38.921350000000004     35.565950000000001
C      39.262850000000000     38.847850000000008     41.596450000000004
C      39.721549999999993     36.175849999999997     40.708650000000006
C      35.032849999999996     38.432950000000005     36.431950000000001
C      34.971150000000002     34.711050000000000     34.947150000000008
C      35.680149999999998     33.997650000000007     35.937450000000013
C      37.521450000000002     34.016649999999998     37.388249999999999
C      38.148850000000003     34.752350000000007     38.499350000000007
C      36.538950000000000     38.362949999999998     38.723950000000002
C      35.030949999999997     36.226349999999996     35.111149999999995
C      36.400349999999996     34.825650000000010     36.971350000000001
C      38.453850000000003     38.253349999999998     40.562750000000008
C      38.573249999999994     36.795650000000009     40.225349999999992
C      35.511250000000004     36.990650000000002     36.299750000000003
C      37.905650000000001     36.100750000000005     39.130349999999993
C      36.876550000000002     36.913849999999996     38.332950000000011
C      36.357149999999990     36.280550000000005     37.298850000000002
C      40.172350000000002     34.937449999999998     40.028149999999997
C      39.435450000000003     34.182150000000007     39.155650000000009
C      33.083149999999996     38.714950000000002     33.376249999999999
C      32.398750000000000     39.994950000000003     33.696750000000009
C      32.555349999999997     40.783349999999999     34.856750000000005
C      33.516249999999999     40.221649999999997     35.749949999999998
C      41.582449999999994     38.647149999999996     43.056749999999994
C      42.912349999999996     38.061850000000007     43.183750000000003
C      43.308550000000004     36.790649999999999     42.502150000000000
C      42.308750000000003     36.342750000000009     41.642950000000013
C      37.217049999999993     38.927549999999997     39.802849999999992
C      35.609650000000002     39.294150000000002     37.704949999999997
C      38.856349999999999     40.090550000000007     42.005050000000011
H      34.084850000000003     36.217250000000007     33.122750000000011
H      32.628149999999998     43.092249999999993     36.036149999999992
H      36.451950000000004     40.320049999999995     37.458449999999999
H      34.675049999999999     34.265050000000002     34.005950000000013
H      36.017650000000003     32.907750000000007     35.705650000000006
H      37.791750000000000     33.303550000000001     36.972849999999994
H      41.195649999999993     34.707750000000004     40.458350000000010
H      39.802050000000001     33.197150000000008     38.604050000000001
H      32.683749999999996     38.250150000000005     32.379950000000008
H      31.645850000000003     40.385950000000008     32.917550000000006
H      33.582650000000001     40.974750000000000     36.520550000000000
H      41.137549999999997     39.762450000000001     43.562149999999988
H      43.758049999999997     38.470450000000000     43.620049999999992
H      44.354149999999997     36.419750000000008     42.508550000000000
H      42.603349999999999     35.538750000000007     41.015650000000008
H      36.960149999999992     40.075550000000007     39.638650000000013
H      34.668750000000003     39.799049999999994     38.024650000000008
H      39.553549999999994     40.812550000000002     41.341550000000012
H      37.659949999999995     40.378850000000000     42.389150000000015
H      39.247349999999997     40.288350000000008     42.970250000000007
N      34.491949999999996     36.856949999999998     33.993650000000002
S      31.793349999999997     42.563249999999996     35.361850000000004
