7

C      37.559349999999995     37.289899999999996     38.556899999999999
C      38.494750000000010     38.238699999999994     37.714399999999998
H      36.767250000000004     37.035699999999991     38.031400000000005
H      38.082750000000004     36.351600000000005     38.678100000000001
H      37.112450000000010     37.745199999999997     39.201899999999995
H      38.809050000000013     39.648399999999995     36.915199999999999
O      39.232749999999996     38.273899999999990     36.798100000000005
