177

C      31.469069999999988     42.077579999999998     34.933049999999994
C      33.656569999999988     41.387280000000004     40.540649999999999
C      32.142669999999988     42.415480000000002     36.230750000000008
C      31.100369999999998     40.587080000000014     34.510950000000001
C      33.709969999999998     41.847180000000009     37.984150000000007
C      33.028669999999998     38.587980000000016     35.842449999999999
C      36.249569999999991     40.758880000000005     40.049849999999999
C      33.041170000000001     41.451380000000015     36.747149999999998
C      32.216670000000001     39.755780000000016     35.190149999999996
C      33.673669999999994     40.678680000000014     39.016950000000001
C      33.122470000000000     39.989680000000007     36.166750000000008
C      30.737569999999998     43.131979999999999     34.362150000000007
C      30.846269999999997     44.574179999999998     34.770050000000005
C      31.001469999999998     44.590880000000013     36.185450000000003
C      31.855569999999993     43.574480000000008     36.923950000000005
C      32.502769999999991     44.004279999999994     38.159549999999996
C      33.487769999999990     43.121880000000004     38.710950000000004
C      31.049270000000000     40.525680000000008     33.051350000000006
C      30.971169999999994     41.675580000000011     32.002650000000003
C      30.519369999999995     43.020579999999995     32.741550000000004
C      34.167369999999998     40.347380000000015     41.670050000000003
C      33.508269999999996     43.019779999999997     40.259949999999996
C      34.880069999999996     43.022480000000016     37.979350000000004
C      34.731869999999986     40.442179999999993     40.188350000000000
C      29.777589999999996     40.037280000000010     33.731549999999999
C      34.964569999999995     43.637980000000013     40.881350000000005
C      41.024569999999990     43.693280000000016     39.234250000000003
C      39.102269999999997     43.176879999999997     41.067950000000003
C      41.065869999999997     37.981380000000016     43.556950000000008
C      40.375469999999993     41.347980000000007     42.170850000000002
C      37.739370000000001     43.553080000000008     41.598149999999997
C      42.778469999999992     39.697779999999995     42.141050000000007
C      41.210869999999993     36.710880000000003     42.882550000000002
C      41.554769999999991     40.500980000000013     42.126350000000002
C      41.594869999999986     39.302680000000009     42.829950000000004
C      40.945369999999997     43.475880000000004     37.906950000000002
C      39.939169999999997     44.579080000000005     38.209550000000007
C      40.082569999999997     42.123480000000015     41.013150000000003
C      40.467369999999988     43.590779999999995     40.592050000000000
C      36.834469999999989     41.678180000000012     41.193850000000005
C      39.762169999999998     37.302180000000007     43.090449999999997
C      36.426069999999989     43.064280000000011     41.161250000000003
C      39.811169999999990     41.310280000000006     39.660049999999998
C      41.685269999999996     35.379680000000008     43.373549999999994
C      41.714169999999996     36.738580000000013     41.406450000000007
C      31.193970000000000     36.449580000000012     39.189850000000007
C      30.617370000000001     35.620880000000000     40.279750000000007
C      27.637830000000001     31.570310000000006     39.574549999999995
C      29.948569999999997     35.603880000000004     38.957749999999997
C      29.720139999999994     35.772580000000005     41.428050000000006
C      27.534289999999999     32.701280000000011     38.643949999999997
C      28.124139999999997     32.347680000000004     40.736549999999994
C      28.040979999999998     33.900780000000005     39.189350000000005
C      28.393609999999995     33.738980000000012     40.761550000000007
C      32.717269999999992     36.432280000000006     39.021050000000002
C      33.747169999999990     35.909880000000001     39.826750000000004
C      33.301969999999997     34.695580000000007     40.651050000000005
C      31.681269999999991     34.605080000000008     40.701649999999994
C      33.537769999999988     37.213080000000005     38.070450000000001
C      35.861169999999994     36.838080000000005     38.827849999999998
C      32.593269999999997     35.197980000000008     41.964050000000007
C      35.113969999999995     36.084779999999995     39.866250000000001
C      28.693769999999994     34.898080000000007     38.432250000000003
C      32.371469999999988     37.892980000000009     37.108650000000004
C      28.991589999999995     34.585980000000006     41.827650000000006
C      30.077269999999999     33.633880000000005     42.510950000000001
C      31.078569999999999     33.198180000000008     41.332850000000008
C      27.904119999999999     34.855680000000007     42.926950000000005
C      34.998370000000001     37.245580000000004     37.751249999999999
C      43.314469999999986     39.354180000000014     34.786049999999996
C      44.940669999999990     36.754780000000011     40.901049999999998
C      43.436769999999989     41.738180000000014     34.958050000000007
C      44.844869999999993     42.431480000000008     35.178049999999999
C      45.428669999999997     37.987079999999992     37.857450000000000
C      46.691769999999998     38.802380000000014     38.056049999999999
C      43.305369999999996     40.477580000000003     35.793350000000004
C      45.872269999999993     42.082780000000014     36.130950000000006
C      44.554569999999998     38.730480000000000     36.956949999999999
C      46.773569999999992     40.275280000000009     37.668250000000008
C      44.510069999999999     40.093080000000015     36.520050000000005
C      45.711869999999998     40.839680000000016     36.863349999999997
C      42.427770000000002     42.498580000000004     34.291350000000001
C      42.637369999999990     43.495180000000005     33.236350000000002
C      43.965370000000000     44.037780000000012     33.341250000000002
C      44.906669999999998     43.545079999999999     34.315050000000006
C      45.804569999999998     36.622280000000003     38.460250000000002
C      47.142869999999995     36.753680000000003     39.047850000000004
C      47.727969999999992     38.070980000000006     38.679950000000005
C      41.997569999999989     40.405980000000000     36.509249999999994
C      40.918569999999995     41.699680000000001     35.965250000000005
C      41.081370000000000     41.837880000000013     34.475450000000002
C      39.908669999999987     42.706379999999996     34.120850000000004
C      41.537969999999994     43.010580000000004     36.686249999999994
C      40.990369999999999     40.659480000000002     33.405550000000005
H      33.740569999999998     39.620780000000011     38.580750000000002
H      44.856069999999988     37.370880000000014     41.809850000000004
H      41.063269999999996     34.536880000000011     43.367050000000006
H      40.213469999999987     45.540179999999992     38.551849999999995
H      33.821969999999993     38.105180000000004     34.999250000000004
H      36.968369999999993     39.900680000000008     39.651750000000007
H      36.037569999999988     41.136280000000014     39.053250000000006
H      30.520869999999995     45.473880000000008     36.776949999999999
H      32.389869999999995     44.673080000000013     38.909150000000004
H      29.772320000000001     39.226580000000013     33.020350000000008
H      30.186069999999994     41.277980000000014     31.343850000000003
H      31.907069999999990     41.869180000000014     31.687550000000002
H      29.541029999999992     43.562980000000010     32.431750000000001
H      31.397069999999999     43.800380000000004     32.650550000000003
H      33.467469999999992     39.894880000000015     42.228550000000006
H      34.869169999999990     40.780480000000011     42.449150000000003
H      32.621469999999988     43.725380000000015     40.613650000000000
H      35.767569999999999     43.460080000000005     38.569150000000008
H      34.762769999999996     43.868680000000012     37.310049999999997
H      28.949269999999991     40.640480000000011     34.077250000000006
H      31.756670000000000     39.529080000000008     32.658850000000001
H      34.557569999999998     43.753479999999996     41.840650000000004
H      35.294269999999990     44.594080000000005     40.684550000000002
H      41.312869999999997     37.987780000000015     44.656149999999997
H      39.750269999999986     41.669580000000011     43.248550000000002
H      43.864370000000001     39.424379999999999     42.055249999999994
H      38.932669999999995     44.362679999999997     38.347950000000004
H      41.358469999999997     44.135480000000015     41.379150000000003
H      39.368369999999992     37.989780000000010     42.263650000000005
H      38.956969999999991     37.210880000000003     43.649550000000005
H      37.661969999999990     44.714180000000013     41.708550000000002
H      37.726669999999991     43.333780000000004     42.700950000000006
H      38.843269999999997     41.435180000000003     39.128350000000005
H      40.716969999999996     41.288680000000014     39.225349999999999
H      39.749269999999996     40.085780000000014     39.947150000000001
H      42.444569999999999     35.179680000000005     42.498050000000006
H      42.235469999999992     35.598080000000003     44.176650000000002
H      27.609890000000000     30.459820000000004     39.366450000000007
H      27.558850000000000     32.369980000000012     37.536749999999998
H      28.166260000000001     31.638980000000007     41.565849999999998
H      33.881769999999996     33.670680000000004     40.534750000000003
H      35.626569999999994     35.890080000000005     40.761050000000004
H      28.259659999999997     34.934080000000009     37.425749999999994
H      31.817169999999997     36.952980000000011     36.797249999999998
H      31.890470000000001     38.550580000000011     37.942550000000004
H      29.637369999999997     36.781880000000015     41.791549999999994
H      29.765249999999995     32.750580000000006     43.230050000000006
H      30.624569999999999     34.220880000000008     43.271950000000004
H      30.496869999999994     32.603580000000008     40.685450000000003
H      31.792569999999998     32.497480000000010     41.765950000000004
H      28.184279999999987     35.657480000000007     43.824050000000007
H      27.329529999999998     33.804680000000005     43.253149999999998
H      27.347429999999996     35.599980000000002     42.295850000000002
H      35.384069999999994     37.973980000000012     36.951749999999997
H      36.885069999999999     37.001680000000007     39.008150000000008
H      30.521769999999997     45.460580000000007     34.224750000000007
H      42.804769999999991     38.351980000000012     35.071050000000000
H      44.270769999999992     38.884880000000010     34.822150000000001
H      43.094569999999997     39.973379999999992     33.728750000000005
H      46.659770000000002     42.958480000000009     35.913950000000007
H      43.732569999999996     38.197380000000010     36.506450000000001
H      47.473669999999991     40.875180000000015     38.101749999999996
H      41.947369999999999     43.988680000000002     32.372250000000001
H      43.933569999999989     44.853980000000007     32.715750000000007
H      45.823169999999998     44.085280000000012     34.083350000000003
H      45.499469999999995     35.687580000000004     37.740849999999995
H      47.754969999999986     35.764580000000009     38.987449999999995
H      48.670470000000002     38.355980000000002     39.153150000000004
H      41.318669999999997     39.558580000000006     36.056450000000005
H      41.963569999999997     40.087880000000013     37.458949999999994
H      39.746670000000002     41.600780000000015     36.479750000000003
H      39.548169999999999     43.126480000000015     35.116050000000001
H      40.002670000000002     43.574780000000004     33.481150000000007
H      39.140169999999998     41.950680000000006     33.746150000000007
H      42.605069999999998     43.015180000000015     37.006650000000000
H      41.733469999999990     43.902879999999996     36.001550000000002
H      39.854070000000000     40.564380000000014     33.359050000000003
H      41.351669999999999     40.923480000000012     32.378950000000003
H      41.573969999999996     39.952879999999993     33.653950000000002
O      37.548469999999995     41.190780000000004     41.980350000000001
O      42.098469999999999     36.659980000000004     40.362650000000002
O      32.615769999999991     36.117580000000004     42.771250000000002
O      44.958069999999999     36.109380000000002     39.948250000000002
