123

C      32.518999999999991     45.052149999999997     45.846549999999993
C      33.087199999999996     37.082650000000001     43.475549999999998
C      32.487899999999996     37.169049999999999     44.833350000000003
C      31.591699999999999     42.872850000000007     46.657350000000001
C      32.115200000000002     39.307549999999999     43.967050000000000
C      31.374100000000002     39.021550000000005     46.496350000000000
C      32.179599999999994     41.643250000000002     47.127250000000004
C      31.328500000000002     40.474250000000005     47.059849999999997
C      31.859199999999998     38.521650000000001     45.138550000000002
C      33.845100000000002     35.979350000000004     42.995049999999999
C      34.206099999999992     35.076450000000008     43.986249999999991
C      33.863200000000006     35.081050000000005     45.387449999999994
C      32.923100000000005     36.121849999999995     45.699849999999998
C      32.684999999999988     38.343350000000001     42.902549999999998
C      34.588999999999999     35.977750000000000     41.684849999999990
C      34.789500000000004     34.557050000000004     46.670849999999994
C      35.658000000000001     35.230750000000000     41.150449999999999
C      31.142700000000001     41.694750000000006     46.196350000000002
C      35.908599999999993     35.457650000000001     47.327750000000002
C      35.668999999999997     36.179749999999999     48.494050000000001
C      41.417299999999997     33.765950000000004     32.477550000000001
C      41.117099999999994     33.872350000000004     33.958950000000002
C      39.962699999999998     38.798550000000006     32.627049999999997
C      39.063400000000001     38.391850000000005     33.815449999999998
C      41.088099999999997     35.182150000000000     31.840650000000004
C      40.280699999999996     34.947150000000008     34.431649999999998
C      40.369099999999989     37.698949999999996     31.711249999999996
C      38.954599999999999     37.217849999999999     34.445149999999998
C      40.351399999999998     36.341149999999999     32.387950000000004
C      39.925399999999996     36.208050000000000     33.810350000000000
C      42.072699999999998     32.657450000000004     31.795249999999999
C      42.225999999999999     31.507140000000007     32.715249999999997
C      42.023899999999998     31.426140000000004     34.177849999999999
C      41.461699999999993     32.673650000000002     34.528150000000004
C      39.878699999999995     40.238150000000005     32.972650000000002
C      38.748399999999990     40.590750000000007     33.945850000000000
C      38.218400000000003     39.396950000000004     34.478250000000003
C      42.442499999999995     32.828249999999997     30.314049999999998
C      42.853200000000001     31.708120000000005     29.411050000000003
C      43.193100000000001     30.648090000000003     30.280450000000002
C      43.009999999999991     30.695020000000007     31.864849999999997
C      41.877799999999993     34.042450000000002     29.695050000000002
C      41.390699999999995     35.205350000000003     30.461950000000002
C      41.277000000000001     36.572150000000008     29.563149999999997
C      40.852499999999992     37.873250000000006     30.191949999999999
C      42.470299999999995     36.865950000000005     28.582749999999997
C      42.251300000000001     36.210450000000009     27.179050000000004
C      39.681299999999993     38.750550000000004     29.857749999999999
C      43.957899999999995     29.697460000000003     32.610450000000000
C      43.990399999999994     29.318270000000005     33.930650000000000
C      38.749299999999991     34.219949999999997     39.271850000000001
C      38.248300000000000     33.015450000000001     39.103149999999999
C      42.578899999999990     35.242750000000001     39.124250000000004
C      39.068799999999996     35.379550000000002     38.147150000000003
C      39.659700000000001     33.193750000000009     39.317850000000000
C      39.610199999999992     34.535250000000005     35.859450000000002
C      40.164800000000000     34.339150000000004     37.352249999999998
C      40.824699999999993     33.380850000000002     38.177450000000000
C      37.152299999999997     34.009450000000001     39.429250000000003
C      36.269400000000005     34.777249999999995     38.372950000000003
C      36.092099999999988     36.454750000000004     36.303249999999998
C      36.728799999999993     35.995850000000004     37.930149999999998
C      35.875299999999996     35.266450000000006     37.046550000000003
C      35.203000000000003     36.705750000000002     35.284849999999999
C      39.055499999999995     36.747950000000003     38.914050000000003
C      37.537000000000006     37.290050000000008     38.218150000000001
C      43.163100000000000     35.567450000000008     40.198149999999998
C      37.968800000000002     32.222650000000002     37.985149999999997
C      39.868799999999993     35.663849999999996     36.886249999999997
H      35.172499999999999     34.487150000000000     43.799450000000000
H      32.855499999999992     36.220950000000002     46.905549999999998
H      31.720800000000001     40.445950000000003     43.950249999999997
H      32.836299999999994     38.795050000000003     41.859050000000003
H      33.974399999999989     36.555650000000000     40.794649999999997
H      34.605899999999991     33.493250000000003     46.923349999999992
H      35.495699999999999     34.329050000000002     45.800449999999998
H      36.582399999999993     34.786950000000004     47.481150000000000
H      36.657999999999987     36.077950000000001     46.389449999999997
H      32.633399999999995     46.924049999999994     45.383349999999993
H      34.844499999999996     36.756750000000004     48.407849999999996
H      38.333799999999997     34.375550000000004     35.804349999999999
H      38.420199999999994     37.034450000000007     35.311349999999997
H      42.316699999999997     30.738630000000004     34.811250000000001
H      41.369399999999999     32.634650000000001     35.694350000000000
H      40.185400000000001     41.041950000000007     32.368250000000003
H      38.671899999999994     41.601550000000003     34.375149999999998
H      37.596699999999998     39.451650000000008     35.499150000000000
H      43.178399999999996     31.797810000000005     28.347349999999995
H      43.672799999999995     29.709400000000002     30.125650000000000
H      41.945299999999989     34.128750000000004     28.621749999999999
H      40.436599999999999     36.641350000000003     28.927750000000000
H      41.811799999999991     38.590350000000001     30.269949999999998
H      42.582999999999998     37.988749999999996     28.118250000000003
H      43.335799999999992     36.421050000000001     29.001149999999999
H      43.228299999999990     36.065950000000001     26.797249999999998
H      41.682000000000002     36.854650000000007     26.528749999999999
H      41.816999999999993     35.231950000000005     26.984749999999998
H      39.144499999999994     38.988050000000001     30.674550000000004
H      39.830799999999996     39.834750000000007     29.755649999999999
H      38.983199999999997     38.663049999999998     28.942549999999994
H      43.038699999999992     29.530770000000000     34.282649999999997
H      44.839699999999993     29.561850000000000     31.821249999999999
H      44.857299999999995     29.075950000000006     34.513249999999999
H      37.077099999999987     31.794500000000003     38.225549999999998
H      40.952199999999991     32.282650000000004     37.762250000000002
H      39.347999999999999     36.638350000000003     40.021949999999997
H      39.480800000000002     37.774050000000003     38.642550000000000
H      37.748899999999992     37.683149999999998     37.327150000000003
H      37.044399999999996     38.023050000000005     38.753650000000000
H      42.471999999999994     35.926550000000006     38.253549999999997
H      43.080999999999989     35.166250000000005     41.082050000000002
H      43.605800000000002     36.574750000000009     39.983350000000002
H      38.465499999999992     31.128850000000000     37.842649999999999
H      37.958100000000002     32.770550000000000     37.019649999999999
H      40.964900000000000     36.016750000000002     37.126950000000001
H      42.591499999999996     33.341450000000002     39.868249999999996
N      42.273499999999999     33.784250000000000     38.935549999999999
O      32.419499999999999     45.925350000000002     44.965850000000003
O      32.528999999999996     44.116450000000007     46.650949999999995
O      36.522999999999996     34.428150000000002     40.984749999999998
O      31.166599999999999     38.414650000000002     47.543249999999993
O      35.852599999999995     35.463950000000004     49.471249999999998
O      34.705500000000001     36.930350000000004     34.170450000000002
