5

C      37.880499999999998     37.543280000000003     37.557099999999991
C      38.236199999999997     38.781510000000004     38.106800000000000
H      38.623900000000006     39.493859999999998     37.421399999999998
H      37.376099999999994     39.192330000000005     38.732300000000002
O      37.522800000000004     36.506140000000002     37.267699999999998
