7

C      37.631649999999993     38.206099999999992     37.169550000000001
C      38.346050000000005     38.137000000000000     38.614149999999995
H      38.356350000000006     38.676899999999989     36.431049999999999
H      36.662149999999997     38.753399999999999     37.102250000000012
H      37.545550000000006     37.246600000000001     36.717550000000003
H      39.337850000000003     37.684500000000000     38.615650000000002
O      37.779449999999997     38.262200000000007     39.568950000000001
