25

C      37.187899999999999     39.990850000000002     36.545850000000002
C      37.810400000000008     38.675050000000013     36.517749999999999
C      38.233300000000007     36.550150000000009     39.392449999999997
C      35.835800000000006     39.400950000000009     38.370349999999995
C      38.588600000000007     38.467450000000014     35.129350000000002
C      36.949600000000004     37.479050000000008     39.654949999999999
C      38.517100000000006     36.692250000000008     37.864950000000000
C      36.456500000000005     38.167850000000008     38.333649999999999
C      37.409700000000008     37.565250000000006     37.370549999999994
C      36.393300000000004     40.499150000000000     37.529349999999994
C      36.520299999999999     37.266750000000009     40.948050000000002
C      37.927700000000009     35.274850000000008     38.613949999999996
C      40.172199999999997     36.692750000000004     37.295750000000005
H      37.758500000000005     40.561550000000011     36.056850000000004
H      39.214900000000007     36.664850000000008     39.962149999999994
H      36.091000000000001     41.584750000000000     37.583649999999999
H      34.905300000000004     39.630450000000010     39.175050000000006
H      35.409300000000009     37.600750000000005     41.329250000000009
H      38.680600000000005     34.415250000000000     38.749649999999988
H      36.830800000000004     34.761350000000007     38.686650000000000
H      41.094699999999996     36.484650000000002     38.045549999999992
H      40.354299999999995     37.611350000000009     38.052049999999994
H      40.185700000000004     36.327850000000012     36.307949999999998
H      37.170200000000001     37.081850000000010     41.736950000000000
O      39.218900000000005     38.490950000000012     34.263050000000000
