20

C      36.742734999999996     40.670099999999991     38.279849999999996
C      39.691164999999998     35.977600000000010     38.269150000000003
C      37.299984999999992     39.509799999999998     38.121149999999993
C      38.390234999999990     36.122200000000007     36.407150000000001
C      38.696154999999990     37.019000000000005     38.769649999999999
C      36.242985000000004     37.562800000000010     36.345250000000000
C      37.308194999999998     38.244300000000010     37.173549999999999
C      38.123085000000003     37.180500000000009     37.553049999999999
C      37.935954999999993     39.317400000000006     39.567149999999998
C      38.681235000000001     38.090800000000002     39.761949999999992
C      39.709974999999986     35.585000000000008     36.865650000000002
H      37.713014999999984     34.341499999999996     35.221550000000001
H      40.527124999999998     35.447299999999998     38.827249999999999
H      37.834804999999989     40.329400000000007     40.245049999999992
H      39.196694999999991     38.109099999999998     40.778449999999999
H      40.472594999999998     35.181899999999999     36.235149999999997
H      36.283774999999991     35.599299999999999     35.589649999999999
N      37.712564999999998     35.476300000000009     35.378450000000001
O      36.692144999999996     41.658500000000004     38.996249999999996
O      35.472875000000002     36.753799999999998     35.976350000000004
