5

C      38.334699999999991     38.120999999999995     38.150849999999991
H      37.113900000000001     38.016799999999996     38.203749999999999
H      38.404499999999992     38.723599999999998     37.156850000000006
H      38.786099999999990     38.751200000000004     38.843149999999994
H      38.886099999999999     37.248799999999996     37.822550000000007
