41

C      40.151550000000000     40.271149999999992     35.278154999999991
C      37.311850000000000     37.204050000000009     38.015865000000012
C      36.377049999999997     37.643050000000002     39.200435000000006
C      41.443950000000008     37.520150000000001     39.170755000000014
C      40.331450000000004     37.352850000000004     39.948905000000011
C      38.645849999999996     36.652049999999988     38.215975000000007
C      36.718450000000011     37.452050000000000     40.556225000000005
C      41.532850000000003     37.920949999999991     40.604015000000011
C      37.577150000000010     37.520049999999998     41.848185000000015
C      39.042350000000006     36.740949999999998     39.692965000000008
C      37.929950000000012     37.116750000000010     40.597395000000006
C      36.959150000000008     37.148650000000004     36.571915000000004
C      35.608250000000005     37.944050000000004     36.343701000000003
C      34.845350000000003     38.505150000000000     37.425295000000006
C      35.223050000000008     38.371450000000010     38.783845000000007
C      40.894350000000003     38.801349999999999     37.292695000000009
C      40.607250000000001     39.075250000000011     35.928403000000010
C      41.928950000000000     37.878550000000004     37.867255000000000
C      37.411850000000008     36.829850000000008     35.380755000000001
C      36.377350000000007     36.959050000000005     34.265455000000003
C      35.337450000000011     37.692950000000010     34.870954999999995
C      34.301350000000006     38.940250000000006     40.043745000000001
C      39.443050000000007     36.256349999999998     36.900985000000006
C      38.871650000000010     36.366849999999999     35.521638899999999
C      39.815249999999999     35.572850000000003     34.753954999999998
C      41.885650000000005     38.575950000000006     41.870855000000006
H      38.268250000000009     37.329250000000002     42.758645000000008
H      33.951150000000005     39.003150000000005     37.281485000000011
H      34.265450000000008     39.644749999999988     40.947515000000010
H      40.073850000000007     39.514650000000003     37.893455000000017
H      40.917549999999999     38.551550000000006     35.056455000000000
H      42.526450000000004     37.658150000000006     36.893135000000008
H      36.498750000000008     36.765250000000009     33.241354999999992
H      34.582050000000002     38.158749999999998     34.166055000000000
H      40.184650000000005     35.377949999999998     37.059285000000010
H      40.473450000000000     36.814850000000007     37.141895000000005
H      40.959050000000005     38.702250000000006     42.366725000000010
H      42.789249999999996     38.916049999999998     42.234485000000006
O      39.718350000000008     41.161749999999998     34.803854999999999
O      40.595350000000003     34.838250000000002     34.477055000000000
O      33.210750000000004     38.497249999999994     40.283935000000007
