42

C      38.877799999999993     37.822299999999998     39.362149999999993
C      39.758299999999998     38.596299999999999     38.385550000000002
C      35.510800000000003     37.663700000000006     35.866750000000003
C      36.449500000000000     38.011899999999997     34.691650000000003
C      37.409200000000006     37.696399999999997     39.224049999999998
C      39.277500000000003     38.697599999999994     36.958650000000006
C      35.874400000000001     37.274299999999997     37.162850000000006
C      37.731500000000004     38.587599999999995     35.136850000000003
C      36.970300000000002     38.024799999999999     37.740150000000000
C      37.912600000000005     38.472899999999996     36.678550000000001
C      39.351700000000001     37.613999999999990     40.727650000000004
C      40.860299999999995     37.534899999999993     40.976349999999996
C      41.776599999999995     37.885800000000003     39.790050000000001
C      41.170800000000000     38.587699999999998     38.756349999999998
C      34.278900000000000     37.236400000000003     35.318049999999999
C      34.072200000000002     37.448499999999996     33.923649999999995
C      34.990100000000005     37.605999999999995     32.848849999999999
C      36.282200000000003     37.897700000000000     33.270750000000000
C      38.522500000000001     37.354600000000005     41.990550000000006
C      39.189199999999992     37.293800000000005     43.327050000000000
C      40.604900000000001     36.994600000000005     43.309850000000004
C      41.401099999999992     37.124899999999997     42.221650000000004
C      37.218400000000003     36.829300000000003     41.689149999999998
C      36.728200000000001     37.108400000000003     40.405850000000001
C      37.454000000000001     38.118200000000002     32.426050000000004
H      40.123699999999999     38.637000000000000     36.088849999999994
H      35.124900000000004     36.698700000000002     37.837850000000003
H      38.687800000000003     38.744799999999998     34.448750000000004
H      42.880899999999997     38.061400000000006     40.120750000000001
H      41.974499999999999     39.301299999999998     38.339250000000000
H      33.632200000000005     37.069999999999993     36.321749999999994
H      33.119100000000003     37.052899999999994     33.653850000000006
H      34.639700000000005     37.700199999999995     31.786049999999996
H      38.558000000000000     36.894900000000007     44.235550000000003
H      41.147500000000001     36.928500000000000     44.260850000000005
H      42.414000000000001     37.160399999999996     42.427750000000003
H      35.547900000000006     37.240099999999998     40.271149999999999
H      36.258499999999998     37.872999999999990     43.657750000000000
H      37.837200000000003     37.435900000000004     31.739149999999995
H      38.407400000000003     37.812899999999999     33.039950000000005
H      37.402799999999999     39.084900000000005     31.987750000000005
S      35.722400000000000     36.995800000000003     42.794750000000001
