67

C      32.303634999999986     40.000799999999998     38.212750000000000
C      34.631034999999990     40.411899999999996     39.600550000000005
C      35.156934999999997     40.001300000000008     40.833350000000003
C      39.380335000000002     42.113499999999995     39.951650000000008
C      38.838505000000005     42.789000000000001     41.251550000000002
C      36.099928000000006     40.044300000000000     39.509950000000011
C      35.542534999999994     41.151899999999998     41.721950000000000
C      38.429515000000002     41.142000000000003     39.468150000000001
C      37.505955000000000     42.862099999999991     41.784850000000006
C      37.150174999999997     41.016400000000004     39.826850000000000
C      36.709215000000000     41.718100000000007     41.149850000000008
C      33.325934999999994     39.635400000000004     39.372450000000001
C      32.607434999999995     38.560900000000004     39.961550000000010
C      33.683434999999996     37.871800000000007     40.848850000000006
C      34.816934999999994     38.571600000000004     41.222549999999998
C      41.878395000000012     41.367500000000007     39.233150000000002
C      40.833244999999998     42.312199999999997     39.952550000000009
C      41.067294999999994     42.992399999999996     41.204950000000004
C      39.857495000000000     43.607399999999998     41.838250000000009
C      42.171184999999994     39.648800000000001     36.670450000000010
C      40.068305000000002     32.897499999999994     36.245450000000005
C      41.430355000000006     39.157500000000006     37.920750000000005
C      39.494515000000000     33.733100000000007     37.308650000000007
C      42.194365000000005     38.997000000000007     35.382450000000006
C      40.899015000000006     33.426000000000002     35.350650000000009
C      40.806784999999998     37.875700000000002     37.865050000000004
C      39.779854999999998     35.077800000000003     37.461450000000006
C      41.854205000000000     36.769600000000004     34.069650000000003
C      41.424665000000005     35.524500000000003     34.080750000000002
C      41.511095000000005     37.660700000000006     35.232650000000007
C      40.834295000000004     35.062400000000004     35.322050000000004
C      41.017455000000005     37.180499999999995     36.514950000000006
C      40.405754999999999     35.824500000000008     36.538150000000009
C      39.983375000000002     36.976700000000001     38.775950000000002
C      39.234605000000002     35.606199999999994     38.637649999999994
C      42.195745000000002     41.152799999999999     36.735150000000004
C      42.216195000000006     41.925800000000002     37.937850000000005
C      41.054455000000004     40.168599999999998     38.873950000000001
C      38.964034999999996     36.780200000000001     39.768249999999995
C      43.611335000000011     38.987100000000005     34.826250000000009
C      42.470924999999994     39.886800000000001     34.120350000000009
H      31.536434999999990     39.835300000000004     37.367850000000004
H      31.286634999999997     40.177800000000005     38.726750000000003
H      36.550266000000001     39.159300000000002     38.978850000000001
H      34.809835000000000     41.573400000000007     42.274750000000004
H      38.616665000000005     40.345800000000004     38.611350000000009
H      37.062815000000001     43.499900000000011     42.626150000000003
H      31.481734999999986     38.241600000000005     39.715149999999994
H      33.393835000000003     36.785400000000003     40.984650000000009
H      35.584434999999992     37.943900000000006     41.559850000000004
H      42.699174999999997     40.689999999999998     39.836849999999998
H      41.736974999999994     42.974900000000005     41.947150000000001
H      39.764625000000002     44.159699999999994     42.805349999999997
H      32.703034999999993     40.906500000000001     37.391850000000005
H      41.683255000000003     39.495200000000004     33.394550000000002
H      39.836995000000009     31.840300000000006     36.134450000000008
H      39.330295000000000     33.202400000000004     38.316050000000004
H      41.423585000000003     32.707599999999999     34.975550000000005
H      42.704994999999997     37.116600000000005     33.264750000000006
H      41.598855000000000     34.982200000000006     33.194650000000003
H      39.457355000000000     34.985100000000003     39.417349999999999
H      42.152805000000008     41.647700000000007     35.863650000000007
H      41.986774999999994     42.941499999999998     37.630250000000004
H      40.693175000000004     39.868800000000007     39.911050000000010
H      42.454585000000002     40.860700000000001     34.223550000000010
O      38.155224999999994     37.243500000000004     40.501750000000001
O      44.713365000000003     38.946300000000001     35.145050000000005
