57

C      35.943949999999987     38.205399999999990     39.256104999999998
C      42.883949999999984     38.650099999999995     37.915410000000008
C      36.818550000000002     37.159499999999994     39.007355000000011
C      42.235150000000004     37.303300000000000     37.997878000000007
C      36.329749999999990     39.626599999999996     39.126725000000008
C      42.201649999999987     39.950699999999998     37.912016000000008
C      38.179849999999988     37.256699999999995     38.317036000000009
C      40.745450000000005     37.358800000000002     37.980679000000009
C      38.340050000000005     41.087699999999998     38.487347000000007
C      40.007049999999992     41.334699999999998     37.954521000000007
C      37.674149999999997     39.749899999999997     38.550228000000011
C      40.721949999999993     39.951899999999995     37.945503000000009
C      38.479050000000001     38.633899999999990     38.000203000000006
C      40.012649999999994     38.694100000000006     38.035683000000006
C      39.093649999999997     36.055199999999999     38.217803000000011
C      40.513549999999995     35.889300000000006     38.265355000000007
C      34.683450000000008     37.965699999999998     39.887185000000002
C      34.067850000000007     36.642399999999995     40.126335000000012
C      35.045150000000007     35.606499999999997     39.636535000000002
C      36.394449999999992     35.697599999999994     39.179625000000001
C      37.392650000000003     34.512599999999999     39.081805000000010
C      38.696849999999998     34.654899999999998     38.564891000000010
C      35.069749999999999     40.502599999999994     39.552315000000007
C      34.016990000000007     40.221000000000004     38.666635000000007
C      34.390000000000001     39.464500000000001     40.257675000000006
C      38.883750000000006     41.419200000000004     37.055255000000010
C      38.638350000000003     40.506399999999992     35.882155000000004
C      35.401250000000005     41.667400000000001     40.517515000000010
C      37.611850000000004     39.182900000000004     35.596455000000006
C      33.824140000000000     39.119599999999998     37.423454999999997
C      32.943779999999990     41.391500000000008     39.030635000000011
H      44.036950000000004     38.434600000000003     37.622255000000003
H      42.985349999999997     36.518400000000000     38.061054000000006
H      42.732949999999988     41.162000000000006     37.912485000000011
H      37.943950000000001     41.890900000000002     39.282395000000001
H      40.417450000000002     42.265499999999996     38.218220000000009
H      41.217449999999999     35.089500000000001     38.320980000000006
H      33.336950000000002     36.338099999999997     40.464865000000003
H      34.378069999999994     34.665300000000002     39.625835000000002
H      36.990049999999997     33.561700000000002     39.385715000000012
H      39.435749999999999     33.996900000000004     38.420950000000012
H      33.345100000000002     42.280299999999997     39.415195000000011
H      33.597390000000004     39.679799999999993     41.047115000000005
H      38.731250000000003     42.438299999999998     36.381755000000013
H      38.977750000000000     41.058999999999990     35.100155000000008
H      39.377549999999999     39.578899999999997     35.992155000000018
H      34.471149999999994     42.225899999999996     40.976655000000008
H      36.038250000000005     42.223599999999998     39.901835000000005
H      36.142250000000004     41.377300000000005     41.329545000000003
H      36.861549999999994     38.966400000000000     36.395555000000002
H      38.416849999999997     38.377300000000005     35.387054999999997
H      37.030850000000001     39.188400000000001     34.670454999999997
H      34.753650000000007     38.758599999999994     36.746555000000008
H      33.293419999999998     38.213099999999997     37.791336000000008
H      33.448139999999995     39.751000000000005     36.612355000000008
H      32.483580000000003     41.192099999999996     39.981875000000009
H      31.963049999999999     41.340100000000000     38.383295000000011
