6

C      38.421149999999997     37.738699999999994     38.393399999999993
C      37.412450000000007     38.220299999999995     37.631499999999996
H      38.413050000000005     36.638300000000001     38.681500000000000
H      39.289049999999996     38.476800000000004     38.619399999999992
H      36.710950000000004     37.568500000000000     37.318500000000000
H      37.186050000000002     39.361699999999999     37.353400000000001
