5

C      37.829899999999995     37.790449999999993     38.241249999999994
H      37.770699999999991     38.952050000000000     38.444350000000000
H      37.483699999999999     37.734450000000002     37.236350000000002
H      37.153399999999998     37.047950000000000     38.763649999999998
H      38.846600000000002     37.336449999999999     38.328650000000010
