42

C      37.253249999999994     38.848849999999999     37.042800000000000
C      36.661050000000003     38.126750000000001     38.254400000000004
C      34.994950000000003     35.342449999999999     34.681700000000006
C      37.002449999999996     38.375650000000007     35.612700000000004
C      35.745350000000002     37.029550000000000     38.043700000000001
C      36.061250000000001     36.261049999999997     34.136099999999999
C      34.761450000000004     35.638249999999999     36.089100000000002
C      36.331449999999997     37.063850000000002     35.410899999999998
C      35.576050000000002     36.703350000000000     36.610900000000001
C      38.371250000000003     39.637950000000004     37.353200000000001
C      39.068750000000001     39.688150000000007     38.702200000000005
C      38.399050000000003     38.898650000000004     39.829300000000003
C      37.090550000000000     38.228149999999999     39.700299999999999
C      39.200949999999999     39.908950000000004     36.176000000000002
C      40.490549999999992     40.652149999999992     36.629599999999996
C      41.103149999999999     40.773650000000004     37.999600000000001
C      40.359050000000003     40.281149999999997     39.094700000000003
C      38.864649999999997     39.865049999999997     34.826900000000009
C      37.601750000000003     39.137550000000005     34.487899999999996
C      39.001449999999998     38.847149999999999     41.181399999999996
C      38.465149999999994     38.056749999999994     42.313699999999997
C      37.193750000000001     37.475250000000003     42.097999999999999
C      36.584850000000003     37.246049999999997     40.769400000000005
C      40.038449999999997     39.711349999999996     41.455900000000000
C      35.071550000000002     36.190750000000008     39.083200000000005
C      35.429850000000002     36.459649999999996     40.393699999999995
C      37.290550000000003     38.954250000000002     32.993099999999998
H      37.770850000000003     39.924149999999997     32.715900000000005
H      41.987749999999998     40.642550000000000     40.594799999999992
H      34.457050000000002     34.496650000000002     34.431200000000004
H      36.530450000000002     36.241650000000007     33.205900000000000
H      34.012250000000002     35.211550000000003     36.668800000000005
H      40.855049999999999     41.192450000000008     35.915599999999998
H      41.929349999999999     41.503349999999998     38.190200000000004
H      39.605550000000001     40.410650000000004     34.331100000000006
H      38.766649999999998     38.268150000000006     43.515000000000001
H      36.849049999999998     37.179349999999999     43.126599999999996
H      40.311950000000003     39.618250000000003     42.612700000000004
H      34.960650000000001     35.110050000000001     38.914500000000004
H      34.971150000000002     35.611149999999995     41.202900000000000
N      40.896650000000001     40.422049999999999     40.573499999999996
O      36.462550000000000     38.201949999999997     32.484999999999999
