5

C      38.169249999999991     38.048299999999990     38.054849999999988
H      38.961550000000003     37.192200000000000     38.517250000000004
H      37.038449999999997     37.656799999999990     37.781350000000003
H      37.696050000000000     38.627299999999984     38.733050000000006
H      38.455449999999999     38.807800000000000     37.266949999999994
