128

C      34.785499999999992     38.672749999999994     38.788299999999992
C      33.701599999999999     37.733550000000008     38.358799999999988
C      30.205799999999996     34.284250000000000     33.977599999999995
C      31.069200000000002     35.455350000000010     33.983800000000002
C      33.989400000000003     39.257949999999994     36.507700000000000
C      31.940600000000003     34.513750000000002     36.939699999999988
C      32.252099999999999     37.068250000000006     36.331500000000005
C      31.576000000000001     36.490750000000006     35.110100000000003
C      33.371099999999998     37.972250000000003     37.043099999999995
C      32.097000000000001     35.745249999999999     36.173199999999994
C      34.918199999999999     39.057549999999992     40.273399999999995
C      34.126899999999999     38.232050000000001     41.159299999999988
C      33.299799999999998     37.128950000000003     40.660299999999992
C      32.989699999999999     36.829750000000004     39.331800000000001
C      29.736400000000003     35.716450000000009     33.503299999999996
C      30.663800000000002     33.607450000000000     36.873699999999999
C      30.859999999999999     33.148450000000011     34.498699999999999
C      30.592199999999998     32.640650000000001     35.904899999999998
C      35.770399999999995     40.091049999999996     40.893199999999993
C      35.688600000000001     40.262250000000009     42.349499999999992
C      34.813399999999994     39.610149999999990     43.215699999999998
C      34.223300000000002     38.435550000000006     42.624499999999998
C      34.907200000000003     39.516249999999999     37.648700000000005
C      36.597099999999998     41.450650000000010     40.530400000000000
C      31.820100000000004     33.211449999999999     35.736400000000003
C      33.977400000000003     39.901650000000004     35.204899999999995
C      39.469699999999996     34.873550000000009     34.952399999999997
C      39.364899999999999     33.398450000000011     35.159999999999997
C      34.872900000000001     35.529650000000004     34.310800000000000
C      34.388199999999998     34.198350000000005     34.226900000000001
C      39.293500000000002     37.088450000000009     35.598799999999997
C      38.002200000000002     33.095750000000010     35.554099999999991
C      37.130999999999993     35.632249999999999     36.089900000000000
C      36.103099999999998     32.993349999999992     35.715400000000002
C      38.521100000000004     35.999049999999997     35.435799999999986
C      36.998899999999992     34.115549999999999     36.036699999999996
C      40.894500000000001     35.131950000000003     34.654200000000003
C      41.740800000000000     33.977250000000012     34.357900000000001
C      41.520199999999996     32.715650000000011     34.215599999999995
C      40.138700000000000     32.216349999999998     34.461900000000000
C      33.570700000000002     35.248850000000004     33.520600000000002
C      32.092399999999998     35.496050000000011     32.813599999999994
C      34.957999999999991     32.540750000000003     36.658599999999993
C      35.507099999999994     33.029850000000010     34.321500000000000
C      40.047100000000000     38.543750000000003     36.173400000000001
C      40.625999999999998     37.820550000000011     35.090000000000003
C      41.527600000000000     36.559350000000009     34.687600000000003
C      36.156100000000002     36.269250000000000     34.776899999999998
C      37.178099999999993     31.787750000000003     35.736400000000003
C      39.453900000000004     30.996849999999998     34.454399999999993
C      40.410699999999991     37.870450000000005     37.529899999999998
C      39.883000000000003     29.863050000000005     33.807299999999998
C      36.411700000000003     36.477250000000012     37.282600000000002
C      38.019500000000001     30.616550000000000     34.788399999999996
C      41.161799999999992     43.884250000000009     37.548599999999993
C      41.550200000000004     41.248450000000005     37.668599999999998
C      43.272900000000000     36.693449999999999     38.527999999999992
C      42.063099999999991     39.927049999999994     38.280899999999988
C      43.577199999999998     37.890450000000001     37.442399999999992
C      42.158099999999997     40.172850000000011     36.874899999999997
C      44.439700000000002     35.815150000000003     38.770099999999999
C      42.940699999999993     39.137350000000012     37.371999999999986
C      44.655199999999994     36.964750000000009     37.893100000000004
C      40.740400000000001     42.531649999999999     37.686399999999992
C      39.719400000000000     44.916450000000012     36.384399999999999
C      39.972900000000003     43.452749999999995     36.760599999999997
C      42.130499999999991     44.826250000000002     38.052599999999998
C      41.031999999999996     38.895450000000011     38.728499999999997
C      45.453299999999999     36.231350000000006     39.945700000000002
C      42.856199999999994     45.966849999999994     37.231499999999997
C      43.944399999999995     34.302650000000000     38.814800000000005
C      39.790800000000004     45.049549999999996     34.739599999999996
H      39.534099999999995     46.161049999999989     34.251800000000003
H      40.621799999999993     44.535349999999994     34.173399999999987
H      38.842599999999997     44.494050000000001     34.400999999999996
H      36.343800000000002     42.410650000000004     40.096199999999996
H      30.775599999999997     32.948150000000012     37.852800000000002
H      32.761800000000001     36.585950000000011     41.364699999999985
H      32.295999999999999     35.976150000000004     39.030100000000004
H      29.584400000000002     36.707750000000004     33.968299999999999
H      32.397199999999998     34.332349999999991     37.913899999999998
H      31.024900000000002     31.588249999999999     36.256699999999995
H      36.291200000000003     41.058349999999990     42.607799999999997
H      34.592100000000002     39.876849999999990     44.224400000000003
H      33.663100000000000     37.844149999999999     43.364699999999999
H      35.523200000000003     40.376850000000005     37.564700000000002
H      37.501500000000000     41.342550000000003     41.024999999999991
H      36.561100000000003     41.312250000000006     39.370800000000003
H      33.527199999999993     39.617350000000002     34.204799999999992
H      34.759200000000000     40.828550000000007     34.950599999999994
H      36.404200000000003     33.500150000000005     33.546999999999997
H      42.920999999999999     34.280850000000001     34.202200000000005
H      42.286399999999993     32.093850000000003     34.066800000000001
H      32.270600000000002     34.605350000000001     32.288799999999995
H      35.164900000000003     31.989450000000001     34.551199999999994
H      39.875499999999995     39.691950000000006     36.063800000000001
H      40.459099999999992     38.511550000000000     34.201399999999992
H      42.132800000000003     36.779550000000000     33.735799999999998
H      42.437700000000000     36.730650000000011     35.394199999999998
H      36.260200000000005     37.494050000000001     34.742199999999997
H      36.929299999999998     36.545449999999988     33.821399999999997
H      37.292200000000001     31.561450000000001     36.801199999999994
H      32.095600000000005     36.046650000000000     31.775600000000001
H      39.444299999999991     37.568950000000001     38.319999999999993
H      40.955300000000001     36.944749999999999     37.262000000000000
H      39.341600000000000     28.877550000000003     33.789400000000001
H      40.813800000000001     29.757650000000002     33.399400000000000
H      36.958799999999997     36.264050000000012     38.258799999999994
H      35.268100000000004     36.091850000000008     37.148799999999994
H      36.287499999999994     37.718450000000004     37.394400000000005
H      38.215899999999998     29.504550000000005     35.392700000000005
H      37.443499999999993     30.190450000000002     33.960999999999984
H      42.224199999999996     36.082050000000010     38.754499999999993
H      42.465499999999992     44.546150000000011     38.986999999999995
H      40.092599999999997     39.480750000000000     39.010399999999990
H      41.281100000000002     38.420950000000005     39.619699999999995
H      44.853499999999997     36.120750000000001     41.004899999999992
H      46.482700000000001     35.645150000000001     39.754800000000003
H      45.623099999999994     37.275450000000006     39.830099999999987
H      42.835399999999993     47.122450000000001     37.515199999999993
H      42.988399999999999     45.782950000000000     36.305099999999996
H      43.871399999999994     46.069650000000010     37.748099999999994
H      44.547600000000003     33.797150000000002     37.973399999999998
H      43.962499999999991     33.821650000000005     40.057400000000001
H      43.000799999999998     34.562049999999999     38.295900000000003
H      29.517299999999999     35.638649999999998     32.442099999999996
O      33.936100000000003     32.650649999999999     37.050500000000000
O      40.089700000000001     45.823049999999995     37.048499999999990
