8

C      38.207449999999994     38.577099999999994     37.898449999999990
C      37.591649999999987     37.239000000000004     38.640549999999998
H      37.567049999999995     38.626800000000003     36.711449999999999
H      37.900149999999996     39.488399999999999     38.419049999999999
H      39.429249999999996     38.660000000000004     38.068449999999999
H      37.519750000000002     36.511600000000001     37.594749999999991
H      38.068749999999994     36.584299999999992     39.288550000000001
H      36.570750000000004     37.743400000000001     38.665549999999996
