5

C      38.135249999999992     38.381509999999999     37.857899999999987
H      37.025449999999999     38.628309999999999     37.691900000000004
H      38.109949999999998     37.240910000000007     37.700800000000001
H      38.974550000000001     38.759089999999993     37.228600000000000
H      38.656649999999999     38.532200000000003     38.771400000000000
