5

C      37.994249999999994     37.908000000000001     37.940599999999996
H      37.888650000000005     37.046900000000001     37.178899999999999
H      38.900649999999999     38.224499999999999     38.821100000000001
H      38.191949999999999     38.953099999999999     37.546199999999999
H      37.099350000000001     37.889100000000006     38.573599999999992
