6

C      38.523249999999983     37.602099999999993     37.882849999999991
C      37.634050000000002     38.466500000000003     38.232650000000000
H      36.463549999999998     38.563000000000002     38.000850000000000
H      39.536450000000002     37.298700000000004     38.393049999999995
H      37.724749999999993     39.319300000000005     38.928950000000000
H      38.041649999999990     36.680699999999995     37.071050000000000
