5

C      38.038749999999993     37.871899999999997     37.943200000000004
H      37.162050000000008     37.785399999999996     37.267099999999999
H      37.675449999999998     37.281899999999993     38.732900000000001
H      37.809550000000002     38.941599999999994     37.617699999999999
H      38.837949999999992     37.058400000000006     37.880500000000012
