95

C      38.167699999999996     35.118299999999991     41.814649999999993
C      36.882700000000007     35.340899999999991     41.999649999999995
C      35.875700000000002     34.305299999999995     41.830049999999993
C      36.457799999999999     33.014199999999995     41.504150000000003
C      37.757799999999996     32.770099999999999     41.235050000000001
C      38.674299999999995     33.877699999999997     41.315849999999998
C      39.303300000000000     36.097099999999990     42.572949999999992
C      37.109899999999996     37.046799999999990     39.535650000000004
C      35.891399999999997     36.311900000000001     39.423150000000000
C      39.424700000000009     33.916400000000003     36.354849999999999
C      38.181500000000007     33.332200000000000     36.270650000000003
C      38.323799999999991     36.701400000000000     38.734749999999998
C      35.888800000000003     35.148299999999992     38.498249999999999
C      39.723800000000004     35.058799999999998     37.504950000000001
C      37.049600000000005     33.462100000000000     37.147350000000003
C      38.406199999999998     35.471299999999992     37.930850000000000
C      37.134699999999995     34.765799999999999     37.890250000000002
C      37.418299999999995     38.046399999999998     40.489750000000001
C      36.501800000000003     38.601999999999990     41.637250000000002
C      35.175199999999997     38.023699999999991     41.292549999999999
C      34.948799999999999     36.937799999999996     40.440950000000001
C      40.160599999999995     33.204000000000001     35.350250000000003
C      39.897399999999998     31.048299999999998     34.022350000000003
C      39.371399999999994     32.054899999999996     34.810850000000002
C      37.958700000000000     32.332599999999999     35.313050000000004
C      38.877299999999998     38.477600000000002     40.155349999999999
C      39.104000000000006     39.797499999999999     40.863049999999994
C      38.057799999999993     40.523799999999994     41.784450000000000
C      36.853600000000007     39.916300000000000     42.094149999999992
C      39.189600000000006     38.070900000000002     38.697849999999995
C      39.812300000000000     38.232799999999997     41.381450000000001
C      41.122199999999992     35.462400000000002     37.635249999999999
C      40.261899999999997     36.758600000000001     41.661749999999998
C      39.379300000000001     39.434599999999996     37.712549999999993
C      38.311500000000002     40.454599999999999     38.028449999999999
C      35.775399999999998     40.766899999999993     35.825450000000004
C      36.225700000000003     41.307000000000002     34.604649999999999
C      37.878500000000003     45.279199999999996     33.642949999999999
C      38.724800000000002     44.422599999999989     34.729050000000001
C      35.663300000000000     41.684899999999999     36.999250000000004
C      36.613999999999997     42.668299999999995     34.147449999999992
C      36.109700000000004     43.049599999999998     36.653150000000004
C      36.415399999999998     45.575499999999991     33.880749999999999
C      36.315800000000003     43.576199999999993     35.309150000000002
C      37.043300000000002     44.801199999999994     34.781649999999999
C      35.134200000000000     41.670399999999994     38.487949999999998
C      35.295999999999999     43.230799999999995     39.178249999999991
C      36.262300000000003     43.569699999999990     38.047649999999997
C      37.699600000000004     43.165599999999991     38.429549999999999
C      38.246200000000002     41.678800000000003     38.846650000000004
C      34.852899999999991     43.568299999999994     40.711449999999999
H      36.394100000000002     36.290900000000001     42.516649999999998
H      34.871000000000002     34.604999999999997     42.001849999999990
H      35.608100000000000     32.371899999999997     41.399950000000004
H      38.036800000000007     31.643999999999998     41.417850000000001
H      39.746499999999997     33.979900000000001     41.012250000000002
H      39.931900000000006     35.467399999999991     43.409750000000003
H      38.824000000000005     36.714300000000001     43.192850000000000
H      34.926499999999990     34.583999999999996     38.382550000000002
H      36.190600000000003     32.863999999999997     37.289149999999999
H      34.588600000000000     38.495199999999997     41.952849999999998
H      33.967800000000004     36.553899999999992     40.414450000000002
H      41.141600000000004     33.059400000000004     35.763050000000000
H      39.363000000000007     30.188499999999998     33.493049999999997
H      41.010300000000008     30.994999999999997     33.952849999999998
H      37.063700000000004     31.585000000000001     35.206049999999991
H      40.025799999999990     40.304199999999994     40.388550000000002
H      38.335399999999993     41.532699999999991     42.229349999999997
H      36.132500000000000     40.323000000000000     42.704949999999997
H      40.129399999999990     37.917299999999997     39.131849999999993
H      39.604300000000002     38.713399999999993     42.338949999999997
H      40.415599999999998     36.217500000000001     40.674550000000004
H      41.200300000000006     36.716499999999989     42.180349999999997
H      39.052899999999994     39.079999999999998     36.716050000000003
H      40.466499999999996     40.062100000000001     37.903449999999999
H      37.844100000000005     40.817700000000002     36.988450000000000
H      37.396200000000000     39.793799999999997     38.296450000000000
H      35.234100000000005     39.633200000000002     36.010249999999999
H      36.343299999999999     40.776799999999994     33.747050000000002
H      38.091699999999996     44.734499999999997     32.590249999999997
H      36.938899999999990     42.923600000000000     33.188749999999999
H      35.425900000000006     45.811500000000002     33.743450000000003
H      35.476700000000001     40.979100000000003     39.281950000000002
H      34.146599999999999     41.159199999999991     38.502150000000000
H      34.572200000000002     43.490999999999993     38.521149999999999
H      36.277199999999993     44.693799999999996     38.075049999999997
H      38.372599999999998     43.703600000000002     37.827550000000002
H      38.129100000000001     43.846899999999998     39.198950000000004
H      37.342700000000001     41.338799999999992     39.637349999999998
H      39.136900000000004     41.529699999999998     39.648049999999998
H      35.527400000000007     44.195700000000002     41.297950000000000
H      34.072600000000001     44.357899999999994     40.774650000000001
H      34.509700000000002     42.577799999999996     41.432050000000004
O      42.032199999999996     36.079700000000003     37.363250000000001
O      39.587600000000002     44.641499999999994     35.510050000000000
