6

C      37.502299999999991     37.751669999999997     37.640699999999995
C      38.515400000000000     38.547699999999992     38.457000000000008
H      37.596799999999995     36.613779999999998     37.322900000000004
H      37.000599999999999     37.973590000000002     36.643799999999999
H      38.774299999999997     38.361719999999998     39.356200000000001
H      38.999400000000001     39.386220000000002     38.092300000000009
