225

C      38.199449999999992     37.098049999999986     36.455599999999990
C      40.379249999999999     37.416650000000004     35.430599999999998
C      35.584750000000000     36.497150000000005     39.570000000000007
C      29.416650000000004     42.165649999999999     42.043000000000006
C      30.408149999999999     41.107649999999992     42.681200000000004
C      26.868549999999999     41.551249999999996     45.954100000000011
C      28.567950000000003     43.059049999999999     42.752600000000001
C      30.023350000000001     40.944049999999990     44.027199999999993
C      26.804350000000007     42.549949999999995     44.857500000000002
C      28.009250000000002     40.711250000000007     45.766199999999998
C      28.018350000000005     42.512150000000005     44.024999999999991
C      28.868050000000004     41.425349999999995     44.717800000000011
C      29.588149999999999     42.461250000000007     40.492100000000008
C      31.800950000000000     41.000850000000000     40.441799999999986
C      31.555550000000004     40.765050000000002     41.870800000000003
C      28.431750000000001     44.385949999999994     41.774700000000010
C      29.455249999999999     45.931750000000008     39.419100000000000
C      28.694050000000004     43.742849999999990     40.330300000000008
C      31.025750000000002     40.058949999999996     44.678400000000011
C      32.092050000000000     39.323250000000002     43.917499999999990
C      28.149350000000005     42.207949999999997     39.833399999999997
C      32.613750000000003     40.465649999999997     44.874499999999983
C      32.471550000000001     38.041049999999998     44.589500000000001
C      25.667250000000003     41.472449999999995     46.810900000000004
C      34.040250000000000     35.497349999999997     32.427400000000006
C      34.199449999999992     43.054849999999988     41.289699999999996
C      28.173550000000006     44.694649999999996     36.665700000000001
C      30.127850000000002     44.733050000000006     38.357500000000002
C      27.599450000000004     44.730350000000001     38.019199999999998
C      26.130950000000006     45.051850000000002     37.852800000000002
C      25.894449999999999     45.173550000000006     36.356200000000001
C      27.040350000000004     44.852149999999995     35.706699999999998
C      28.615650000000002     44.779749999999993     39.131900000000002
C      37.032049999999998     36.236350000000002     30.720000000000002
C      48.399350000000005     37.933450000000008     40.287299999999988
C      48.443750000000001     32.920849999999987     41.438199999999995
C      46.570350000000005     37.767849999999996     37.252600000000001
C      47.605050000000006     32.934150000000002     40.272800000000004
C      48.999250000000004     38.971450000000004     40.920499999999990
C      48.862649999999995     34.119150000000005     42.170500000000004
C      46.940650000000005     36.823149999999998     38.323199999999986
C      47.346450000000004     34.159450000000007     39.524599999999992
C      49.240950000000005     36.481750000000005     42.179500000000004
C      49.172249999999998     37.613849999999999     41.486399999999989
C      48.701649999999994     35.389650000000003     41.465000000000003
C      47.716350000000006     36.671549999999996     39.585899999999995
C      47.893149999999999     35.500650000000007     40.290699999999987
C      46.421949999999995     35.504450000000006     37.859099999999984
C      46.855750000000000     39.152649999999994     37.509499999999989
C      44.677249999999994     40.241650000000007     36.121200000000002
C      45.668349999999997     39.522850000000005     35.507999999999996
C      46.874049999999997     38.889749999999992     36.230599999999995
C      32.111350000000002     40.799750000000003     37.193899999999985
C      45.303149999999995     34.389250000000004     34.769599999999997
C      44.446249999999992     33.185350000000000     35.186300000000003
C      47.061749999999996     29.485650000000000     35.113500000000002
C      46.719049999999996     34.303650000000005     34.474599999999995
C      45.153050000000000     32.005849999999995     35.175200000000004
C      48.782050000000005     33.055350000000004     34.287900000000008
C      47.491249999999994     30.680949999999996     34.723399999999998
C      47.405050000000003     33.007050000000007     34.386499999999998
C      46.579250000000002     31.980250000000002     34.773799999999994
C      44.649450000000002     35.719049999999996     34.997699999999995
C      43.344950000000004     35.939949999999996     35.520399999999995
C      42.430250000000001     34.642250000000004     35.573800000000006
C      43.019750000000002     33.420749999999998     35.465199999999996
C      45.433549999999997     36.997349999999997     34.580299999999994
C      44.849350000000001     38.444950000000006     34.700900000000004
C      42.843149999999994     37.317949999999996     35.638599999999997
C      46.768150000000006     36.842449999999999     34.187899999999999
C      47.575150000000001     35.556250000000006     34.298199999999994
C      49.004450000000006     35.726050000000001     34.212400000000002
C      49.530550000000005     34.301850000000002     34.268599999999992
C      41.483550000000001     37.405050000000003     36.264600000000002
C      49.868750000000006     33.216250000000002     33.099800000000002
C      50.602450000000005     35.292950000000005     34.713600000000000
H      35.369150000000005     36.917450000000002     35.629999999999995
H      46.033450000000002     33.484049999999996     37.793100000000010
H      36.920150000000007     41.296750000000003     38.138199999999998
H      33.626350000000002     37.909750000000003     36.457099999999997
H      35.496450000000003     41.578649999999996     36.106999999999999
H      33.983350000000002     44.553049999999999     35.470100000000002
H      35.796950000000002     39.759049999999988     36.888299999999987
H      36.095050000000001     43.412749999999988     39.691800000000001
H      42.603450000000002     32.583849999999998     35.338099999999997
H      35.607149999999997     43.175049999999999     36.840899999999991
H      35.072050000000004     40.164649999999995     38.794899999999998
H      32.222050000000003     44.430650000000000     36.977400000000003
H      34.523049999999998     41.999750000000006     37.692000000000007
H      26.122650000000000     43.158349999999999     44.314400000000006
H      28.035850000000003     39.829750000000004     46.162199999999984
H      27.441450000000003     44.910549999999986     41.769500000000008
H      29.197550000000000     45.216649999999987     41.909499999999994
H      28.796350000000004     46.095449999999985     40.313500000000005
H      30.269550000000002     46.543650000000000     40.046700000000001
H      32.928849999999997     40.286850000000001     45.882800000000003
H      30.606350000000006     39.800749999999994     45.571600000000004
H      34.397350000000003     38.279449999999997     39.385500000000008
H      39.860450000000000     40.510649999999998     33.893100000000004
H      28.127049999999997     42.157550000000001     38.768100000000004
H      27.482650000000007     41.812349999999995     40.428100000000001
H      32.913350000000001     41.395049999999998     44.313200000000009
H      37.931049999999999     36.411249999999995     32.379300000000001
H      33.029150000000001     37.323449999999994     44.039900000000003
H      31.501750000000001     37.541649999999990     45.019500000000008
H      33.459350000000001     38.122249999999994     45.509599999999992
H      26.118850000000002     42.389049999999997     47.340299999999999
H      24.458050000000007     41.683650000000000     46.181599999999989
H      37.949850000000005     38.841349999999991     32.470900000000000
H      33.327449999999999     41.304449999999989     35.526600000000002
H      35.746350000000007     37.971950000000007     30.909700000000004
H      33.696750000000002     43.151449999999997     36.696699999999993
H      36.074950000000001     44.060249999999996     35.036400000000000
H      34.340550000000007     40.678349999999995     33.973499999999987
H      37.084450000000004     40.630949999999999     32.978700000000003
H      32.760450000000006     38.838849999999994     41.769900000000007
H      38.138750000000002     40.712750000000000     34.707899999999995
H      32.400649999999999     39.746049999999997     38.671700000000001
H      36.613450000000000     36.686449999999994     37.885900000000007
H      34.698650000000001     36.142250000000004     37.044999999999987
H      32.473849999999999     45.054550000000006     35.259699999999995
H      33.867950000000000     39.724950000000007     36.093599999999995
H      29.035850000000003     44.111149999999995     36.509399999999999
H      25.592350000000003     45.554950000000005     38.679600000000008
H      24.939750000000004     45.335049999999995     35.908299999999997
H      27.081750000000000     44.503149999999991     34.616399999999999
H      36.812150000000003     37.716149999999999     33.572500000000005
H      34.679250000000003     42.012349999999998     39.628700000000009
H      37.626049999999999     40.707949999999997     31.300000000000001
H      36.198149999999998     40.500850000000000     34.851100000000002
H      42.734850000000002     39.385949999999994     34.775800000000004
H      44.387350000000005     31.167950000000001     35.294399999999996
H      34.322550000000000     42.975149999999999     34.315399999999997
H      35.086549999999995     36.616650000000007     33.859999999999999
H      38.171450000000000     41.586849999999998     36.363299999999995
H      48.578749999999999     31.936350000000001     41.986200000000011
H      47.191950000000006     32.005549999999999     39.688599999999994
H      49.576950000000004     39.676349999999999     41.634600000000006
H      49.511349999999993     34.066649999999996     43.050600000000003
H      49.382749999999994     36.579750000000004     43.338799999999992
H      45.938450000000003     35.241249999999994     36.889400000000009
H      47.593250000000005     39.475849999999994     38.233200000000011
H      46.263649999999998     40.187449999999998     34.839299999999994
H      47.825449999999996     39.099850000000004     35.739199999999997
H      37.941950000000006     39.533749999999998     37.239500000000007
H      40.906450000000000     38.855850000000004     37.473900000000000
H      34.579950000000004     36.685950000000005     31.078900000000001
H      34.949250000000006     38.701350000000005     37.524900000000002
H      35.269250000000000     38.955550000000002     34.557199999999995
H      37.558450000000001     43.996549999999999     38.682200000000009
H      37.072149999999993     42.536449999999988     34.331299999999999
H      46.016950000000001     29.294149999999998     35.587800000000001
H      37.617550000000001     43.237150000000000     36.693399999999997
H      48.554650000000002     30.837550000000004     34.309399999999997
H      47.663750000000000     28.697950000000002     35.264700000000005
H      41.395550000000000     34.734549999999999     35.330799999999996
H      45.017849999999996     39.073149999999998     33.664800000000000
H      47.313650000000003     37.729950000000002     33.801099999999991
H      49.408349999999999     36.761849999999995     33.909700000000001
H      49.608049999999992     33.865350000000007     32.258200000000002
H      50.744050000000001     32.530550000000005     33.208299999999994
H      51.541949999999993     35.322849999999988     34.085599999999999
H      50.929449999999996     35.029849999999996     35.785100000000000
H      38.864850000000004     37.916049999999998     33.831900000000005
H      39.404650000000004     38.968850000000003     37.108499999999992
H      25.622650000000007     40.461950000000002     47.226799999999997
H      36.503649999999993     44.878850000000000     37.157299999999992
H      31.005850000000002     41.792050000000003     38.570500000000010
H      38.995049999999999     42.287949999999995     33.722700000000003
N      30.939450000000001     41.718449999999990     39.679099999999991
N      32.227750000000000     39.555049999999994     42.388199999999998
N      37.933050000000001     37.649450000000002     32.887500000000003
N      38.063850000000002     39.348549999999989     34.889300000000006
N      36.818750000000001     39.200649999999996     34.891199999999998
N      35.854449999999993     37.037250000000000     30.487300000000001
N      46.641050000000000     34.216949999999997     38.370900000000006
N      43.336350000000003     38.458349999999996     34.865799999999993
N      36.787149999999997     43.741649999999993     37.380099999999999
O      34.285950000000000     43.433049999999994     37.474900000000005
O      38.317350000000005     40.420150000000007     32.114400000000003
O      39.066250000000004     36.571050000000000     35.781499999999994
O      34.666150000000002     41.654949999999999     34.862300000000005
O      37.323250000000002     37.627350000000007     37.160299999999992
O      34.172250000000005     42.777450000000002     42.468099999999993
O      34.729349999999997     37.075450000000004     40.210099999999997
O      38.785650000000004     38.932150000000007     38.043599999999998
O      34.477249999999998     35.484049999999996     33.577700000000007
O      32.721249999999998     40.113049999999987     39.872600000000006
O      34.870550000000001     44.226250000000007     34.410499999999999
O      39.704949999999997     41.216349999999991     33.111500000000007
O      33.639250000000004     35.561750000000004     31.284600000000001
O      35.534150000000004     41.498249999999999     38.576400000000007
O      34.370850000000004     43.292150000000007     40.083099999999988
O      33.972549999999998     39.340249999999997     34.582899999999995
O      38.313350000000000     42.113249999999994     34.992800000000003
O      30.836450000000006     44.261049999999997     37.579200000000000
O      35.495050000000006     38.811949999999996     38.848700000000008
O      36.392650000000003     36.718750000000000     34.572699999999998
O      38.101350000000004     41.003649999999993     37.596400000000003
O      32.986550000000001     45.292349999999999     36.238299999999995
O      38.022350000000003     35.696150000000003     31.046699999999998
O      33.632350000000002     38.887949999999989     37.233600000000010
O      43.692750000000004     40.887949999999989     36.350999999999999
O      31.393149999999999     39.852750000000000     37.547499999999985
O      32.690849999999998     41.723349999999996     36.624400000000009
O      36.178150000000002     35.684049999999999     38.852699999999999
O      35.013850000000005     40.488249999999994     36.710599999999999
O      34.275950000000002     36.549650000000000     36.147999999999996
O      36.869050000000001     43.987150000000000     39.823000000000008
O      40.210750000000004     38.154149999999987     34.482500000000002
O      41.196050000000000     37.874549999999999     37.588000000000008
O      36.495550000000001     41.465149999999994     33.847400000000007
S      37.805750000000003     47.302049999999994     32.961399999999998
S      39.517050000000005     45.254350000000002     33.517399999999995
S      36.364350000000002     46.255450000000010     30.959000000000000
S      37.910650000000004     45.447850000000003     28.659700000000004
S      40.207950000000004     44.390550000000005     29.677399999999999
S      37.365749999999998     44.303549999999987     30.617000000000001
S      37.183950000000003     44.709750000000000     32.836600000000004
S      39.146650000000001     43.339050000000000     31.710400000000003
S      35.524950000000004     43.905249999999995     29.393400000000000
S      36.529449999999997     42.497549999999990     31.571700000000003
S      37.465550000000000     45.517949999999999     35.080399999999997
S      38.805650000000000     45.895350000000008     31.124800000000004
S      38.151749999999993     42.639250000000004     29.172500000000003
