196

C      36.578944999999990     45.599949999999993     45.152600000000000
C      37.527544999999989     43.750850000000000     46.281099999999995
C      44.790045000000006     41.587649999999996     40.180700000000002
C      45.909445000000005     41.994550000000004     39.423000000000002
C      33.535544999999999     39.459949999999992     42.473500000000001
C      39.721344999999999     40.717649999999992     37.691199999999995
C      38.401544999999999     41.156649999999999     37.227399999999996
C      40.743044999999995     45.186949999999996     38.373699999999999
C      40.899645000000007     41.536749999999998     37.720399999999998
C      38.384245000000007     42.686649999999986     36.726100000000002
C      41.152244999999994     43.741450000000000     38.443700000000000
C      39.576644999999999     45.127449999999996     37.369300000000003
C      40.633844999999994     43.019249999999985     37.359999999999999
C      39.272744999999986     43.583249999999992     36.940700000000007
C      39.786945000000003     39.458449999999992     38.497700000000002
C      38.495545000000007     38.704749999999997     38.629400000000004
C      37.211245000000005     39.197949999999999     37.869699999999995
C      37.170845000000000     40.411749999999998     37.207900000000002
C      40.863844999999998     39.015549999999998     39.442099999999996
C      40.635644999999997     38.050849999999997     40.502200000000002
C      39.538845000000009     37.181550000000001     40.470100000000002
C      38.517144999999999     37.431349999999995     39.377900000000004
C      42.038044999999997     39.832049999999995     39.257900000000006
C      42.072444999999988     40.872749999999996     38.248200000000004
C      36.289445000000001     38.119150000000005     37.524900000000002
C      35.243345000000005     38.553349999999995     36.755900000000004
C      34.878744999999995     39.855750000000000     36.107400000000005
C      35.993345000000005     40.778149999999997     36.412100000000002
C      37.449245000000005     36.577849999999998     38.755000000000003
C      36.222045000000008     36.805350000000004     38.044900000000005
C      36.984645000000000     43.036850000000001     36.143499999999996
C      36.242945000000006     41.924350000000004     35.402500000000003
C      37.500945000000002     35.294649999999997     39.438500000000005
C      40.616645000000005     45.726150000000004     36.644200000000005
C      35.981045000000009     43.345649999999992     37.329299999999996
C      41.208945000000000     46.090450000000004     39.670800000000007
C      33.657745000000006     39.999750000000006     35.131499999999996
C      38.309944999999999     46.052649999999986     37.459499999999998
C      33.002144999999999     41.068049999999999     31.584700000000005
C      32.443144999999987     39.804349999999999     31.177100000000003
C      30.079464999999999     41.617750000000001     34.426300000000005
C      32.339145000000002     42.417649999999995     31.904300000000006
C      31.274355000000003     39.003949999999996     31.720200000000006
C      31.433035000000000     41.107249999999993     34.625599999999999
C      30.439035000000001     39.373249999999999     32.763300000000001
C      31.345454999999998     43.189349999999990     32.703700000000005
C      30.494125000000000     40.494550000000004     33.680800000000005
C      34.458844999999997     41.352649999999997     31.658700000000003
C      35.290545000000009     40.529849999999996     30.763400000000004
C      34.805345000000003     39.358149999999995     30.225900000000003
C      33.277945000000003     39.074349999999995     30.178500000000007
C      35.095945000000000     42.556449999999998     32.400099999999995
C      36.511645000000001     42.755849999999995     32.348700000000001
C      37.138845000000003     42.220649999999992     31.106100000000005
C      36.809644999999989     40.889349999999993     30.596100000000007
C      34.247745000000009     43.477949999999993     32.837700000000005
C      32.902245000000008     43.435450000000003     32.813100000000006
C      35.879545000000007     38.360649999999993     29.739399999999996
C      35.419145000000000     37.344650000000001     28.848199999999999
C      33.964044999999999     36.973549999999996     29.131100000000004
C      32.877745000000004     37.777850000000001     29.624800000000000
C      37.589145000000002     39.633349999999993     30.507900000000006
C      37.116745000000009     38.525250000000000     29.773899999999998
C      31.072225000000000     37.589249999999993     31.094900000000003
C      31.530564999999999     37.327449999999999     29.673800000000000
C      32.012275000000002     44.122649999999993     33.633700000000005
C      29.856914999999997     42.782650000000004     33.398599999999995
C      30.513095000000003     38.179249999999996     28.703700000000005
C      32.135445000000004     40.463049999999996     35.790700000000001
C      44.167945000000003     41.374750000000006     37.678400000000003
C      36.156945000000007     31.512649999999994     40.891800000000003
C      37.327945000000000     31.426649999999999     41.869600000000005
C      35.283645000000007     36.371750000000006     41.686800000000005
C      36.139845000000008     36.262449999999994     42.828400000000002
C      35.328845000000001     32.666550000000001     40.587800000000001
C      37.664744999999996     32.620249999999999     42.530200000000001
C      34.912144999999995     35.182849999999995     40.881100000000004
C      36.954644999999999     34.997050000000002     43.110100000000003
C      35.733045000000004     33.962149999999994     41.032600000000002
C      36.733244999999997     33.829349999999998     42.247800000000005
C      35.806745000000006     30.291650000000001     40.226800000000004
C      36.645944999999998     29.057050000000000     40.192700000000002
C      37.540745000000001     29.120250000000002     41.212400000000002
C      37.896545000000003     29.997749999999996     42.222600000000007
C      34.858045000000004     37.661249999999995     41.250600000000006
C      35.025244999999998     38.914050000000003     42.044400000000003
C      35.711345000000009     38.545349999999999     43.313200000000002
C      36.330744999999993     37.352149999999995     43.692600000000006
C      34.135644999999997     32.569950000000006     39.521900000000002
C      34.888045000000005     31.647749999999995     38.452000000000005
C      34.770244999999989     30.370650000000001     39.111500000000007
C      34.194145000000006     29.032349999999997     38.870700000000006
C      34.293745000000001     31.633949999999999     37.123799999999996
C      39.165744999999987     40.360749999999996     45.008200000000002
C      38.991744999999995     41.202849999999998     43.728200000000001
C      38.887045000000001     45.196249999999992     42.953800000000001
C      38.754445000000004     43.898049999999998     43.799800000000005
C      40.650445000000005     45.408949999999990     42.837900000000005
C      39.716345000000004     44.950050000000005     41.717700000000001
C      38.763744999999986     42.550950000000000     44.183900000000001
C      39.354344999999995     42.709249999999997     40.200600000000001
C      39.797345000000007     43.430049999999994     41.438800000000001
C      39.762145000000004     42.026249999999990     41.502000000000002
C      37.789544999999990     46.271949999999990     42.869800000000005
C      38.206644999999995     43.378950000000003     47.404500000000006
C      36.567845000000005     46.041849999999997     43.760300000000001
C      38.427845000000005     43.406549999999996     45.170899999999996
C      39.750945000000002     46.073249999999987     40.628800000000005
C      39.002445000000009     47.402349999999998     40.978000000000002
C      37.820544999999996     47.211249999999993     41.818800000000003
C      39.942045000000007     40.729949999999988     42.268900000000002
H      40.824044999999998     46.470749999999995     42.750300000000003
H      37.622645000000006     43.501449999999991     48.324400000000004
H      47.018645000000006     41.714050000000000     39.751500000000007
H      46.034744999999987     42.972149999999999     39.072800000000001
H      33.115244999999987     40.040449999999993     43.316499999999998
H      32.950845000000001     38.486149999999995     42.649700000000003
H      33.027244999999994     40.034049999999993     41.422000000000004
H      41.686845000000005     43.312149999999988     39.540900000000001
H      41.456344999999999     38.185850000000002     41.177199999999999
H      39.387344999999996     36.252650000000003     41.108400000000003
H      42.796044999999992     39.437349999999995     40.098200000000006
H      34.603144999999998     37.915949999999995     36.020099999999999
H      35.334244999999996     36.257850000000005     37.970299999999995
H      37.280844999999999     43.884349999999998     35.495300000000007
H      36.413444999999996     41.409949999999995     34.453100000000006
H      35.365645000000001     42.396450000000002     35.024300000000004
H      41.431245000000004     44.993949999999998     36.347100000000005
H      40.006844999999998     46.627449999999996     36.167600000000007
H      39.090045000000003     42.564650000000000     39.288400000000003
H      36.204544999999996     43.956450000000004     37.976399999999998
H      34.972544999999997     43.289949999999990     37.180099999999996
H      35.966745000000003     42.472849999999994     38.012100000000004
H      42.083145000000002     46.102050000000006     40.382700000000007
H      41.559344999999993     46.962149999999994     39.141999999999996
H      33.981645000000000     40.749449999999996     34.562999999999995
H      33.677745000000002     39.514149999999994     34.171800000000005
H      38.220945000000000     45.964249999999993     38.557900000000004
H      38.688245000000009     47.067149999999998     37.420300000000005
H      37.800844999999995     46.162449999999993     36.556399999999996
H      29.237914999999997     41.307850000000002     35.073400000000007
H      29.665504999999996     38.662449999999993     33.036600000000007
H      37.313344999999998     43.473349999999996     32.864399999999996
H      38.260644999999997     42.149349999999998     31.439800000000005
H      36.001745000000000     36.786849999999994     28.155100000000004
H      33.671644999999998     36.042549999999999     28.537600000000005
H      38.635545000000008     39.829149999999998     30.691100000000006
H      37.894944999999993     38.046849999999992     29.553099999999993
H      30.090905000000003     37.034549999999996     31.501599999999996
H      31.382845000000000     36.795149999999992     31.592400000000005
H      31.337745000000002     36.188349999999993     29.541699999999999
H      32.101145000000002     45.136549999999986     34.040000000000006
H      28.981354999999997     42.555549999999997     32.826300000000003
H      29.250594999999997     43.666449999999998     33.909600000000005
H      33.577544999999986     45.492549999999994     33.784300000000002
H      30.509164999999996     39.379649999999998     28.837399999999995
H      29.486484999999998     37.242149999999995     29.023400000000002
H      30.987535000000005     38.063850000000002     27.675599999999996
H      32.370545000000007     40.924949999999995     36.606699999999996
H      31.495374999999999     39.544849999999997     36.179600000000001
H      39.622444999999999     40.976050000000001     45.689700000000002
H      38.115544999999997     32.716949999999997     43.506300000000003
H      34.155245000000008     35.295450000000002     40.179700000000004
H      37.614045000000004     34.879750000000001     43.821400000000004
H      36.796845000000005     28.408649999999998     39.411500000000004
H      38.014845000000008     28.304649999999999     41.439200000000000
H      38.374044999999995     29.960150000000002     43.067900000000002
H      34.197645000000009     37.491050000000001     40.464100000000002
H      35.612445000000008     39.763549999999995     41.371900000000004
H      35.990345000000005     39.153949999999995     44.318500000000007
H      37.033445000000000     37.351150000000004     44.575300000000006
H      34.148444999999995     33.779250000000005     39.237100000000005
H      33.156845000000004     32.115349999999992     39.824299999999994
H      36.007345000000001     32.045649999999995     38.478800000000000
H      34.883944999999997     30.710849999999997     36.584899999999998
H      33.196545000000000     31.353849999999998     37.282499999999999
H      34.525845000000004     32.591849999999994     36.509999999999998
H      38.419044999999997     39.797749999999994     45.838299999999997
H      39.875545000000002     39.468649999999997     44.614900000000006
H      38.131444999999985     40.889449999999997     43.277000000000001
H      41.188044999999988     44.674149999999997     43.580800000000004
H      39.140644999999992     42.881249999999994     47.284900000000000
H      35.774445000000000     46.681549999999987     43.150800000000004
H      39.008345000000006     45.900750000000002     39.882800000000003
H      39.679344999999998     48.012150000000005     41.381300000000003
H      38.793145000000010     47.930849999999992     39.800300000000007
H      37.049445000000006     47.946650000000005     41.555900000000001
H      39.504244999999997     39.828249999999997     41.751100000000001
H      41.039344999999997     40.655249999999995     42.370200000000004
O      36.634044999999986     45.045850000000002     46.215599999999995
O      44.241444999999999     41.443650000000005     41.084800000000001
O      37.202145000000002     34.251649999999998     39.856600000000007
O      43.129445000000004     41.075249999999997     37.103099999999998
O      45.347544999999997     41.641249999999999     37.968399999999995
O      33.956545000000006     27.987849999999998     38.737200000000001
S      34.999144999999999     45.049250000000001     33.859400000000001
