246

C      44.576509999999992     43.905399999999993     45.434249999999999
C      43.972449999999995     35.544600000000003     35.474150000000002
C      43.409129999999998     34.250500000000002     34.838050000000003
C      42.056809999999999     35.829799999999999     39.800250000000005
C      41.028939999999999     36.647300000000001     39.414349999999992
C      43.450420000000001     36.021999999999998     36.684849999999997
C      42.192059999999998     33.499200000000002     35.406150000000004
C      41.528320000000001     35.759599999999999     38.372450000000001
C      40.998536999999999     33.036799999999999     37.498650000000005
C      42.292500000000004     35.392200000000003     37.189450000000001
C      41.852010000000000     33.975700000000003     36.718249999999998
C      44.931950000000001     36.133000000000003     34.536149999999992
C      44.965789999999991     35.232800000000005     33.359349999999999
C      44.067850000000000     34.073900000000002     33.583049999999993
C      43.801699999999997     32.920800000000000     32.446150000000003
C      45.695609999999995     37.496800000000007     34.808050000000001
C      46.855820000000001     37.524000000000001     33.909649999999992
C      45.271850000000001     38.384299999999996     33.810749999999992
C      42.071739999999998     32.038900000000005     35.229550000000003
C      43.271609999999995     31.425400000000003     34.610550000000003
C      43.644649999999999     31.554800000000000     33.037849999999992
C      42.860849999999999     33.448000000000000     31.489349999999998
C      43.741500000000002     33.035699999999999     29.984650000000002
C      45.216709999999999     32.172200000000004     32.600950000000005
C      29.887659999999997     34.807900000000004     36.268449999999994
C      30.923459999999999     34.031300000000002     37.009450000000001
C      29.372059999999998     30.434300000000000     33.659049999999993
C      29.127459999999992     34.366300000000003     35.136350000000000
C      30.644459999999988     32.545999999999999     37.007350000000002
C      28.639859999999992     31.857800000000005     33.743049999999997
C      30.171459999999989     30.612200000000001     34.856850000000001
C      29.007059999999996     32.901100000000000     34.812850000000005
C      29.963560000000001     32.044100000000000     35.674150000000004
C      30.153259999999996     36.341900000000003     36.434649999999998
C      31.818759999999997     36.338600000000000     38.151749999999993
C      33.027159999999995     36.846800000000002     38.783450000000002
C      31.847059999999992     34.920300000000005     37.742049999999999
C      31.068959999999997     37.264300000000006     37.268149999999991
C      31.267059999999994     37.047499999999999     35.927249999999994
C      34.440360000000005     36.657400000000003     39.333750000000002
C      29.026860000000006     32.190700000000000     37.089150000000004
C      31.041060000000009     30.422499999999999     33.594650000000001
C      29.793460000000003     29.415300000000002     35.814349999999997
C      30.264459999999993     38.344499999999996     38.310849999999995
C      27.515159999999987     32.284800000000004     33.100549999999998
C      32.093259999999994     38.830900000000000     42.624250000000004
C      31.294959999999996     38.380300000000005     41.421750000000003
C      36.128560000000007     37.604500000000002     41.113450000000000
C      33.157259999999994     37.843500000000006     42.662250000000000
C      32.097459999999991     37.071300000000008     41.391149999999996
C      36.024859999999997     38.345500000000001     42.408650000000009
C      35.186959999999992     38.818300000000008     43.153050000000007
C      33.502960000000002     36.768999999999998     41.788849999999996
C      31.717560000000006     40.137299999999996     43.255250000000004
C      30.735960000000006     41.323999999999998     42.952250000000006
C      29.367860000000000     40.280999999999999     41.138350000000003
C      30.092859999999995     38.968500000000006     40.800750000000008
C      34.171360000000007     37.844999999999999     43.843150000000001
C      31.877060000000000     41.284799999999997     44.000250000000008
C      31.204359999999987     35.841799999999999     40.960850000000008
C      29.867659999999994     36.568200000000004     40.252049999999990
C      29.698760000000000     38.063199999999995     39.766149999999996
C      36.531459999999988     38.683300000000003     39.926249999999996
C      37.453760000000003     37.560100000000006     40.331450000000004
C      38.767360000000004     37.647500000000008     41.114050000000006
C      36.093059999999980     39.771699999999996     43.576250000000002
C      29.890460000000004     41.497100000000003     41.893949999999997
C      42.823419999999999     44.876500000000000     41.272149999999996
C      43.909430000000000     44.620300000000000     40.290649999999999
C      46.392029999999998     45.789200000000008     44.108349999999994
C      42.997219999999992     45.112800000000007     42.675750000000008
C      45.158560000000001     44.406399999999998     40.672350000000009
C      44.817799999999998     45.253200000000007     44.544550000000001
C      46.801169999999999     45.159500000000008     42.749549999999999
C      44.323399999999999     45.265399999999993     43.276949999999992
C      45.540129999999991     44.925399999999996     42.095550000000003
C      41.320621000000003     44.994600000000005     40.919950000000000
C      40.956588999999994     44.774000000000001     39.536249999999995
C      42.049230000000001     44.695499999999988     38.515049999999995
C      43.480069999999998     44.838999999999999     38.851249999999993
C      40.121259999999999     45.170600000000007     41.747749999999989
C      38.807360000000003     45.362200000000001     41.253250000000008
C      38.497759999999992     45.185500000000005     39.818849999999998
C      39.606659999999998     44.877499999999998     38.919850000000004
C      40.357460000000003     45.359999999999999     43.293750000000003
C      41.823180000000001     45.420299999999990     43.530850000000001
C      41.734400000000001     44.529800000000009     37.062550000000002
C      42.755430000000004     44.629599999999996     36.161750000000005
C      44.171590000000002     44.902399999999993     36.369649999999993
C      44.509149999999998     44.764399999999995     37.760150000000003
C      46.280449999999995     44.618300000000005     39.593950000000007
C      45.821609999999993     45.311199999999992     38.373350000000002
C      42.287630000000000     46.446600000000004     44.634650000000008
C      44.064120000000003     46.421099999999996     44.448750000000004
C      46.665619999999997     43.703299999999999     42.785849999999996
C      48.300370000000001     45.592599999999997     42.461749999999995
C      46.898350000000001     43.285499999999992     39.135949999999994
C      40.669649999999997     39.170900000000003     34.851349999999996
C      40.052859999999988     37.930099999999996     35.567649999999993
C      44.885610000000000     38.759699999999995     40.345749999999995
C      41.339463000000002     39.969999999999999     35.793649999999992
C      39.964460000000010     37.696200000000005     36.996749999999999
C      44.972329999999999     39.823499999999996     39.207649999999994
C      43.465779999999995     38.369100000000003     40.514150000000001
C      43.168920000000000     40.061400000000006     37.512850000000000
C      41.318165000000000     38.080700000000007     39.138149999999996
C      41.780099999999997     39.558700000000002     37.187249999999992
C      40.951107999999998     38.457999999999998     37.697449999999996
C      43.618119999999998     39.628600000000006     38.800749999999994
C      42.612890000000000     38.677000000000007     39.412249999999993
C      40.329359999999994     39.583300000000008     33.480049999999999
C      39.389859999999992     38.605699999999999     32.689050000000002
C      39.415459999999996     37.181700000000006     33.275349999999996
C      39.788260000000001     36.889900000000004     34.608350000000002
C      40.866584000000003     40.752099999999999     32.882049999999992
C      37.535259999999994     38.118600000000001     30.926250000000000
C      38.359059999999992     39.057800000000000     31.850750000000005
C      41.649509999999999     41.569100000000006     34.013449999999992
C      42.002409999999998     41.180999999999997     35.309949999999994
C      43.349029999999999     41.562399999999997     35.543049999999994
C      44.009950000000003     41.085999999999999     36.781849999999991
C      45.311290000000000     41.478099999999998     37.306550000000001
C      45.929359999999996     41.022900000000007     38.556650000000005
C      39.535859999999992     36.470500000000001     40.128650000000007
C      45.626700000000000     37.478800000000007     40.589550000000003
C      46.143599999999999     41.910600000000002     39.621250000000003
C      40.653182000000001     42.379100000000001     34.885750000000002
C      47.204349999999998     40.157100000000000     38.068650000000005
C      31.380160000000004     31.565000000000005     37.829549999999998
C      31.022459999999988     30.896999999999998     39.022850000000005
C      32.260059999999996     30.560300000000005     39.819450000000003
C      33.608059999999988     31.679900000000004     38.358749999999993
C      32.754260000000002     31.745400000000004     37.200449999999996
C      32.865559999999995     32.569800000000001     35.926950000000005
H      40.895848000000001     41.118400000000008     31.752949999999998
H      34.368759999999995     31.134599999999999     40.445149999999998
H      45.650739999999999     43.449399999999997     45.501950000000008
H      43.747579999999999     43.256000000000000     45.160449999999997
H      44.474550000000001     44.232299999999995     46.582749999999997
H      44.740809999999996     32.494000000000000     29.488650000000000
H      42.104900000000001     35.232600000000005     40.748350000000002
H      45.651260000000001     35.609100000000005     32.554749999999999
H      43.879570000000001     36.894600000000004     37.131549999999997
H      45.979779999999991     37.965199999999996     35.824949999999994
H      47.466990000000003     37.823800000000006     34.874849999999995
H      47.020200000000003     36.448599999999999     33.776350000000001
H      45.899940000000001     39.033900000000003     33.188150000000000
H      44.630309999999994     37.824500000000000     32.962149999999994
H      41.995500000000000     31.510800000000003     36.343149999999994
H      40.966487999999998     31.882899999999999     35.050749999999994
H      43.150980000000004     30.291699999999999     34.722749999999998
H      44.324069999999999     31.478400000000001     35.291849999999997
H      43.274279999999990     30.602200000000003     32.342049999999993
H      41.795610000000003     32.732900000000001     31.126049999999996
H      42.693370000000002     34.616800000000005     31.547950000000000
H      42.908809999999995     32.431800000000003     29.543550000000003
H      43.861890000000002     33.816299999999998     29.417250000000003
H      46.177350000000004     32.721299999999999     32.656549999999996
H      45.848030000000001     31.291100000000000     32.859750000000005
H      34.032059999999994     35.820799999999998     45.108950000000007
H      34.396459999999998     35.673000000000002     38.980950000000000
H      28.401259999999994     40.235200000000006     41.719449999999995
H      28.940759999999990     29.500599999999999     33.341950000000004
H      28.484659999999998     35.172000000000004     34.559850000000004
H      32.971759999999996     37.911600000000007     39.179549999999992
H      32.699259999999988     34.752299999999998     38.311850000000000
H      31.816460000000006     36.713000000000001     35.051349999999992
H      35.174360000000007     37.290700000000001     38.906349999999996
H      31.553860000000007     31.472799999999999     33.360050000000001
H      31.802360000000007     29.763300000000001     33.545250000000003
H      29.348359999999992     28.663400000000003     35.100149999999992
H      29.315259999999995     29.877099999999999     36.683850000000000
H      30.660359999999990     29.085700000000003     36.143650000000001
H      30.599859999999993     39.332800000000006     38.206149999999994
H      29.400360000000013     38.838999999999999     37.787249999999993
H      27.051360000000003     31.630900000000004     32.367749999999994
H      26.888660000000002     33.023800000000001     33.160750000000000
H      35.284959999999998     35.290800000000004     41.213350000000005
H      28.637659999999997     40.567499999999995     40.418350000000004
H      33.591960000000000     38.195899999999995     44.619950000000003
H      32.436459999999997     42.245199999999997     44.759150000000005
H      31.777259999999991     35.225000000000001     40.194150000000008
H      30.957760000000015     35.204999999999998     41.839449999999999
H      29.057659999999991     36.628599999999999     40.990150000000000
H      29.660560000000004     35.995600000000003     39.340050000000005
H      28.660159999999998     38.136200000000002     39.414249999999996
H      35.582260000000005     39.280000000000001     40.145650000000003
H      37.190559999999998     39.336600000000004     39.170450000000002
H      37.920760000000001     37.353200000000001     39.347449999999988
H      39.617360000000005     38.228000000000009     41.606750000000005
H      38.327359999999999     36.989000000000004     42.132050000000007
H      35.725759999999980     39.971000000000004     44.574849999999998
H      36.589259999999989     40.645200000000003     43.123249999999999
H      29.371960000000001     42.533400000000000     41.614850000000004
H      35.589160000000000     35.956099999999999     43.905450000000002
H      35.889559999999996     39.220200000000006     30.531849999999995
H      46.225799999999992     46.870699999999992     44.242350000000002
H      46.629779999999997     45.371499999999990     45.155650000000009
H      37.791059999999995     45.600300000000004     41.627350000000007
H      37.477959999999989     45.330399999999997     39.393749999999997
H      39.320059999999991     44.398299999999999     38.037350000000004
H      40.749102000000001     44.202799999999996     36.791249999999998
H      42.411410000000004     44.628699999999988     35.056849999999997
H      44.473590000000002     44.828500000000005     35.364149999999995
H      47.164029999999990     45.385399999999997     39.934650000000005
H      46.649810000000002     45.325699999999998     37.713750000000005
H      45.784350000000003     46.357599999999998     38.689950000000003
H      42.169640000000001     45.744000000000000     45.434349999999988
H      41.848109999999998     47.315600000000003     45.388450000000006
H      44.578450000000004     47.336599999999997     44.817750000000004
H      45.746109999999994     43.275999999999996     43.361050000000006
H      47.263190000000002     43.145099999999999     42.001750000000001
H      48.518180000000001     46.658299999999990     42.589449999999999
H      48.587959999999995     45.386699999999998     41.438350000000000
H      49.111339999999998     45.432899999999997     43.100549999999998
H      46.978019999999994     43.246800000000007     38.031349999999996
H      48.014530000000001     43.425899999999999     39.529849999999996
H      39.374959999999994     36.821500000000000     37.546950000000002
H      43.236910000000002     37.544100000000000     41.369250000000008
H      38.973059999999997     36.526299999999999     32.448150000000005
H      39.732859999999995     35.892800000000001     34.965650000000004
H      38.242260000000002     37.238299999999995     30.723350000000000
H      38.439159999999994     40.078900000000004     31.864249999999998
H      43.948560000000001     42.317300000000003     34.837450000000004
H      45.929859999999991     42.122100000000003     36.637949999999996
H      45.145250000000004     36.734700000000004     41.242850000000004
H      46.642730000000000     37.698499999999996     40.418949999999995
H      45.243209999999991     42.238999999999997     40.319550000000007
H      46.774760000000001     41.480800000000002     40.577349999999996
H      41.066127999999999     43.358300000000000     35.150950000000002
H      39.675160000000005     42.424700000000001     34.303650000000005
H      47.193049999999999     39.309100000000001     38.522050000000000
H      48.237290000000002     40.561499999999995     37.990950000000005
H      47.085849999999994     40.249400000000009     37.023550000000000
H      30.015859999999996     30.759599999999999     39.462350000000001
H      32.045359999999995     30.063800000000001     40.851150000000004
H      34.656859999999995     32.246700000000004     37.879550000000002
N      34.782659999999993     36.465299999999999     40.999849999999995
N      34.794359999999998     36.476400000000005     44.556150000000002
N      36.454060000000005     38.399500000000003     30.276050000000005
N      33.463559999999994     31.173999999999999     39.665350000000004
O      40.472095799999998     32.128599999999999     37.858350000000002
O      27.993659999999991     32.229399999999998     37.595050000000001
O      39.670460000000006     45.696700000000000     44.210450000000009
O      39.225760000000001     35.358400000000003     39.898250000000004
O      32.907259999999987     33.351300000000002     35.079449999999994
