46

C      39.720354999999991     39.762999999999991     37.971249999999998
C      39.120624999999997     38.915900000000001     39.039750000000005
C      35.317354999999999     35.227299999999993     38.635350000000010
C      37.526722999999997     34.990800000000000     37.323850000000000
C      39.149334999999994     39.825799999999987     36.662750000000010
C      38.249954999999993     37.791999999999994     38.742650000000005
C      33.215655000000005     35.936000000000000     39.974449999999997
C      37.288704999999993     36.383500000000005     36.862949999999998
C      38.089800999999987     37.556499999999986     37.355249999999998
C      36.206354999999995     35.564199999999992     37.675650000000005
C      40.964074999999987     40.569199999999995     38.419050000000006
C      41.259154999999993     40.896700000000003     39.733049999999999
C      40.753144999999989     39.835500000000003     40.593049999999998
C      39.484114999999996     39.132899999999999     40.467749999999995
C      33.773054999999992     35.499999999999993     38.694550000000000
C      35.770154999999981     33.869199999999999     39.218950000000000
C      37.134851299999994     33.187199999999990     39.133550000000000
C      37.500514999999993     33.553500000000000     37.814150000000005
C      41.328084999999994     41.766399999999997     37.624050000000004
C      42.183934999999991     42.967099999999995     38.010849999999998
C      42.549044999999992     42.883599999999994     39.503250000000001
C      42.034534999999991     41.997899999999987     40.378650000000000
C      39.791494999999998     40.614499999999992     35.597150000000006
C      41.013424999999998     41.568099999999994     36.155550000000005
C      38.066373999999996     38.892000000000003     36.616950000000003
C      40.831894999999989     43.015499999999996     35.719250000000009
C      41.336204999999993     40.408800000000006     35.249950000000005
H      38.022494999999992     36.860300000000002     39.425150000000009
H      37.180596099999995     36.617700000000006     35.782850000000003
H      40.733464999999995     39.908099999999997     41.643950000000004
H      39.015184999999995     38.656200000000005     41.253350000000005
H      33.065554999999982     34.904800000000002     37.824550000000009
H      35.238154999999992     33.356800000000000     39.993250000000010
H      37.173297099999992     32.171399999999998     39.656950000000002
H      38.207884999999990     32.972299999999997     37.334450000000004
H      42.855824999999989     43.551300000000005     37.437150000000010
H      43.306544999999993     43.472799999999999     39.872549999999997
H      42.293224999999993     41.878300000000003     41.458550000000002
H      39.333104999999989     41.568499999999993     35.033650000000002
H      37.649031999999998     38.723899999999993     35.571750000000002
H      39.800994999999993     43.431199999999997     36.129949999999994
H      41.520824999999995     43.230600000000003     34.632750000000009
H      41.653664999999997     43.828600000000002     35.821350000000002
H      41.839544999999994     40.947200000000002     34.356049999999996
H      41.660344999999992     39.360999999999997     35.626350000000009
O      32.693455000000007     36.053000000000004     40.940950000000001
