5

C      38.299499999999995     37.698599999999999     38.126486499999999
H      38.614399999999989     37.360700000000001     38.960526500000000
H      38.756099999999996     38.712100000000000     38.031356499999987
H      38.452099999999994     37.287900000000000     37.039473500000000
H      37.243900000000004     37.788199999999996     38.260236500000005
