6

C      38.240150000000000     37.934100999999998     37.302749999999996
C      38.047750000000001     38.211223000000004     38.706950000000006
H      37.699850000000005     38.719538999999997     36.680750000000003
H      38.798849999999995     37.280461000000003     36.531549999999996
H      38.411850000000001     37.513760999999988     39.468450000000004
H      37.201150000000005     38.620363999999995     39.060850000000002
