7

C      37.625949999999996     37.629000000000005     38.797199999999989
C      36.633550000000000     38.237499999999997     39.678300000000007
C      39.428049999999999     37.432800000000000     36.973299999999995
H      36.416049999999998     39.022199999999998     38.983999999999995
H      35.906350000000003     37.329100000000011     39.740899999999996
O      38.314550000000004     36.977800000000002     38.032499999999999
O      40.093649999999997     37.804100000000005     36.259100000000004
