5

C      38.037099999999995     38.156149999999997     38.050299999999993
H      38.901200000000003     38.672050000000006     38.411699999999996
H      37.098799999999997     37.860450000000000     38.723799999999997
H      37.903199999999998     38.858150000000002     37.276200000000003
H      38.387499999999989     37.141849999999998     37.677700000000002
