5

C      38.023149999999987     38.115949999999998     38.213750000000005
H      37.264649999999996     37.220149999999990     37.909350000000003
H      37.238149999999997     38.779850000000010     38.739950000000007
H      38.297450000000005     38.578250000000011     37.226050000000001
H      38.761850000000003     37.743549999999999     38.773949999999999
