50

C      37.337050000000005     39.126700000000000     37.238849999999992
C      37.528050000000007     39.324699999999993     38.761149999999994
C      36.785150000000002     34.286299999999997     38.482249999999993
C      36.568250000000006     34.444400000000002     39.854649999999999
C      37.171149999999997     37.751400000000004     36.772149999999996
C      37.086449999999999     38.261700000000005     39.731349999999999
C      36.926150000000007     35.282400000000010     37.548249999999996
C      36.846050000000005     35.814400000000006     40.253149999999998
C      36.881950000000003     36.683499999999995     37.875250000000001
C      36.804249999999996     36.893400000000000     39.282649999999997
C      37.818849999999998     40.371300000000005     36.630949999999999
C      38.720349999999996     41.368499999999997     37.188450000000003
C      38.966450000000009     41.489199999999997     38.621549999999999
C      38.256450000000001     40.454700000000003     39.260850000000005
C      37.057850000000002     37.716400000000007     35.247950000000003
C      37.161650000000009     39.030000000000001     34.328450000000004
C      37.936250000000001     40.014300000000006     34.990150000000000
C      39.898049999999998     42.181200000000004     39.511150000000001
C      37.887850000000000     38.534599999999998     33.191850000000002
C      39.301050000000004     38.057900000000004     34.060649999999995
C      40.024250000000009     36.977200000000011     33.141849999999998
C      36.832250000000002     41.234800000000007     36.044349999999994
C      35.790350000000004     38.755099999999999     34.856250000000003
C      36.841549999999998     36.089700000000008     41.821150000000003
C      37.537850000000006     37.356800000000007     42.659449999999993
H      36.693950000000001     33.282100000000000     38.106749999999991
H      36.628650000000007     33.541899999999998     40.385649999999998
H      37.159549999999996     38.524500000000003     40.709750000000000
H      37.222850000000008     35.171100000000010     36.465049999999991
H      39.350149999999999     42.063199999999995     36.562349999999995
H      38.368350000000007     40.456200000000010     40.281750000000002
H      37.023550000000000     36.625799999999998     34.903949999999995
H      38.499350000000007     40.639800000000008     34.260249999999999
H      37.580250000000007     37.560699999999997     32.735950000000003
H      38.096850000000003     39.326500000000010     32.499150000000000
H      39.978149999999999     39.118200000000002     34.268349999999991
H      39.081950000000006     37.506300000000010     34.979150000000004
H      39.293149999999997     36.139200000000002     33.232349999999997
H      39.732450000000000     37.133700000000005     32.058149999999998
H      40.895150000000001     36.403300000000002     33.409649999999999
H      36.663449999999997     42.353200000000001     35.567149999999998
H      35.763450000000006     40.696200000000005     36.013649999999998
H      35.496049999999997     38.352300000000000     33.943950000000001
H      35.104849999999999     39.589399999999998     34.571649999999998
H      35.669849999999997     36.231499999999997     42.118949999999998
H      37.234250000000003     35.236900000000006     42.240749999999991
H      37.961250000000007     38.336100000000002     42.325249999999997
H      38.515050000000002     36.969800000000006     42.518749999999990
H      37.459450000000004     37.334299999999999     43.941850000000002
O      40.365049999999997     42.717900000000000     40.337450000000004
