6

C      38.791100000000000     38.316954999999993     37.816400000000002
C      37.630299999999998     37.720369000000005     38.173999999999992
H      39.003299999999996     38.741214999999997     36.810599999999994
H      39.273699999999998     38.659284999999997     38.640500000000003
H      37.633600000000001     37.258785000000003     39.189400000000006
H      36.726300000000002     37.319752999999992     37.663700000000006
