5

C      38.011799999999994     37.784749999999988     38.176099999999991
H      37.913799999999995     38.884549999999997     38.066699999999997
H      37.796500000000002     37.502649999999988     37.095700000000001
H      37.191199999999995     37.924749999999996     38.904299999999999
H      38.808800000000005     37.115450000000003     38.622999999999998
