5

C      38.226769999999995     37.887749999999997     38.035349999999994
H      37.310600000000001     38.152450000000002     37.831350000000008
H      38.689399999999999     38.755250000000004     38.512250000000002
H      38.664800000000000     37.409949999999995     37.142850000000003
H      38.371530000000000     37.244749999999996     38.857149999999997
