5

C      38.061249999999994     38.243450000000003     37.926499999999997
H      38.530050000000003     38.675350000000002     38.872300000000003
H      38.859050000000003     38.186750000000004     37.127699999999997
H      37.563450000000003     37.320249999999994     38.365000000000002
H      37.140949999999997     38.679750000000006     37.427700000000009
