111

C      35.049199999999999     42.267049999999998     35.226299999999995
C      34.108300000000007     43.453049999999990     35.780599999999993
C      34.824900000000007     41.767550000000007     40.216200000000001
C      35.413400000000003     43.086350000000003     40.306399999999996
C      35.696899999999999     41.586549999999995     36.226799999999997
C      35.158900000000010     44.063949999999998     36.547600000000003
C      35.037400000000005     41.080850000000005     38.803500000000000
C      35.770800000000001     43.891249999999999     39.162499999999994
C      35.317400000000006     41.820550000000004     37.693499999999986
C      35.613599999999998     43.394849999999998     37.742800000000003
C      32.709800000000008     41.983750000000008     33.885400000000004
C      33.873900000000006     42.938750000000006     34.412300000000002
C      37.083200000000005     40.809649999999998     36.126599999999996
C      33.400600000000004     44.413950000000000     34.746399999999994
C      34.378599999999999     40.748349999999988     41.186099999999996
C      34.547700000000006     42.715650000000004     42.642999999999986
C      35.268100000000004     43.723649999999992     41.694899999999990
C      31.844900000000003     41.719349999999999     35.246699999999990
C      31.685700000000004     42.314550000000004     32.526600000000002
C      31.477200000000003     42.632250000000006     34.018199999999993
C      36.273900000000005     45.205350000000003     36.015199999999993
C      36.216500000000003     45.391849999999998     34.679699999999997
C      34.802300000000002     45.256250000000001     34.146400000000000
C      35.231700000000004     39.686850000000000     38.601199999999992
C      34.936000000000000     38.703649999999996     39.744999999999990
C      34.217800000000004     39.318149999999996     40.974099999999993
C      35.948200000000000     38.814349999999997     40.819299999999998
C      33.903800000000004     46.617449999999998     34.044199999999989
C      34.983100000000000     37.156649999999999     39.365799999999993
C      38.928100000000008     35.513050000000000     43.199199999999990
C      40.339600000000004     35.832450000000001     43.682499999999990
C      40.122699999999995     31.711049999999997     42.875099999999989
C      42.606400000000008     31.843650000000000     42.716499999999996
C      38.881799999999998     34.036450000000002     42.967699999999994
C      41.605499999999999     35.047049999999999     43.526699999999991
C      38.813099999999999     31.122250000000001     42.292099999999991
C      42.700500000000005     33.301650000000002     42.479999999999990
C      40.235200000000006     33.121749999999992     43.005899999999997
C      41.538300000000007     33.685850000000002     43.106399999999994
C      37.878099999999996     36.503250000000001     43.139899999999997
C      38.085200000000007     37.935650000000003     43.267099999999999
C      39.359999999999999     38.232449999999993     43.880799999999994
C      40.386899999999997     37.221049999999998     44.117599999999996
C      41.418999999999997     30.966349999999998     43.036499999999990
C      41.655099999999997     29.518649999999997     43.351299999999995
C      43.023400000000002     29.528750000000002     42.790499999999994
C      43.628400000000006     30.871650000000002     42.410899999999998
C      36.521799999999999     36.018450000000001     43.284700000000001
C      35.451000000000001     37.076349999999998     43.587599999999995
C      35.837999999999994     38.491350000000004     43.532799999999995
C      37.135300000000001     39.114849999999997     42.919099999999986
C      36.282100000000007     34.652950000000004     42.863999999999990
C      37.477600000000002     33.790750000000003     42.597099999999998
C      36.874700000000004     32.937249999999992     41.460999999999999
C      37.599900000000005     31.578849999999999     41.405299999999997
C      38.546399999999998     29.797650000000004     42.543699999999987
C      36.465400000000002     33.806249999999999     40.342699999999994
C      37.865700000000004     34.049150000000004     39.243899999999996
C      36.073399999999999     31.886050000000004     42.070499999999996
C      37.504000000000005     40.584049999999998     43.108899999999991
H      35.991799999999998     44.982849999999999     39.065299999999993
H      32.465600000000002     44.662849999999999     35.375699999999995
H      34.918100000000003     42.889249999999990     43.731399999999994
H      31.518500000000010     40.520950000000006     35.341999999999999
H      31.902799999999999     42.192149999999998     36.151100000000000
H      31.616900000000008     41.347349999999999     32.102899999999991
H      32.112200000000009     43.054949999999998     31.787800000000001
H      31.463900000000002     43.626849999999997     34.268299999999996
H      35.721999999999994     46.089350000000003     36.459599999999995
H      37.091700000000003     44.919849999999997     36.250499999999988
H      36.753300000000003     44.400649999999999     34.100999999999999
H      36.906200000000005     46.156049999999993     34.187600000000003
H      35.030400000000007     44.722249999999995     33.341799999999992
H      36.064800000000005     39.526649999999997     38.111799999999988
H      34.388600000000004     39.371150000000007     37.767200000000003
H      33.642100000000006     38.770150000000008     41.648499999999999
H      33.113000000000007     46.394250000000007     33.228200000000001
H      33.978900000000003     47.032249999999998     35.123699999999999
H      34.273000000000003     47.498249999999999     33.446500000000000
H      35.809800000000003     37.093850000000003     38.772899999999993
H      34.761800000000001     36.623249999999999     40.414199999999994
H      34.143600000000006     36.641950000000001     38.801699999999997
H      37.421799999999998     41.265949999999997     35.189799999999991
H      36.739399999999996     41.352650000000004     42.901399999999995
H      42.500299999999996     35.324649999999998     43.366000000000000
H      43.608200000000004     33.785850000000003     42.474800000000002
H      39.581899999999997     39.404950000000007     43.929099999999991
H      41.385500000000008     37.477850000000004     44.173199999999994
H      40.991600000000005     28.712450000000004     43.496399999999994
H      43.326700000000002     28.501750000000001     42.320399999999992
H      44.536099999999998     31.281050000000000     42.118699999999990
H      34.443200000000004     36.841349999999998     43.730099999999993
H      35.242600000000003     39.322649999999996     43.838399999999993
H      35.377499999999998     34.648250000000004     42.340299999999999
H      37.579300000000003     31.151049999999998     40.331799999999987
H      38.024100000000004     29.333949999999998     41.839999999999989
H      39.022100000000002     29.078949999999999     43.211499999999987
H      35.684300000000000     32.873149999999995     39.794699999999992
H      35.775700000000008     34.562649999999991     40.508899999999997
H      37.857100000000003     33.301949999999991     38.453000000000003
H      38.254100000000001     34.957849999999993     38.752699999999990
H      35.196400000000004     31.979150000000001     41.375699999999995
H      35.183000000000000     32.195449999999994     42.720299999999995
H      38.704299999999996     33.515750000000004     39.875499999999988
H      38.547199999999997     40.991549999999997     42.590099999999993
H      37.509700000000002     40.356450000000002     44.212199999999996
H      34.048400000000001     40.646350000000005     43.348799999999997
N      34.177700000000009     41.395350000000001     42.478899999999996
O      37.066600000000001     38.710450000000002     41.274099999999990
O      37.852900000000005     40.720250000000000     37.062699999999992
O      35.598400000000005     44.886850000000003     41.926699999999997
