6

C      37.311599999999991     37.931049999999999     37.924749999999996
C      38.624800000000000     38.362949999999998     38.062049999999999
H      36.457999999999998     38.001149999999996     38.562449999999998
H      39.091300000000004     38.832949999999997     38.884349999999998
H      37.121200000000002     37.167050000000003     37.115650000000002
H      39.542000000000002     37.813749999999999     37.776449999999997
