75

C      38.331960000000002     37.243600000000001     39.795449999999995
C      36.889950000000006     37.493399999999994     39.472650000000002
C      39.681260000000009     41.486400000000003     37.374750000000006
C      38.465900000000005     41.230000000000004     36.991750000000003
C      39.210380000000008     38.331800000000001     39.304750000000006
C      36.177733000000003     38.003900000000002     38.214150000000004
C      40.042049999999996     40.795000000000002     38.682650000000002
C      36.711730000000003     39.160799999999995     37.516050000000000
C      38.983450000000005     39.718299999999999     38.761250000000004
C      37.861510000000010     40.003900000000002     37.797850000000004
C      38.946990000000007     36.294300000000007     40.469650000000001
C      38.084220000000009     35.260700000000000     41.166150000000002
C      36.588240000000006     35.640700000000010     41.132750000000001
C      36.180962000000008     36.716700000000003     40.550550000000001
C      40.538000000000004     42.405500000000004     36.608550000000001
C      40.150480000000009     42.897800000000004     35.296850000000006
C      38.748490000000004     42.726799999999997     34.862350000000006
C      37.919310000000010     41.824900000000000     35.769250000000000
C      40.340170000000001     35.734800000000007     40.459549999999993
C      40.588720000000002     34.292400000000001     40.607150000000004
C      39.652110000000008     33.471200000000010     41.211750000000002
C      38.499339999999997     34.052000000000007     41.823649999999994
C      41.383700000000005     36.951500000000010     40.231950000000005
C      40.584950000000006     38.176400000000001     39.816849999999995
C      41.660420000000002     39.167500000000004     39.537450000000000
C      41.389440000000008     40.557500000000005     39.271150000000006
C      34.685760000000009     37.407600000000002     38.195449999999994
C      34.015559999999994     36.849299999999999     39.427650000000000
C      34.602260000000001     37.346599999999995     40.623450000000005
C      36.621030000000005     39.076500000000010     36.010050000000000
C      37.022110000000005     40.313400000000001     35.313949999999998
C      37.238030000000002     42.443399999999997     36.905350000000006
C      33.810959999999994     35.385499999999993     39.218250000000005
C      32.476660000000010     34.770799999999994     39.945449999999994
C      37.201800000000006     37.738500000000002     35.353550000000006
C      42.348410000000008     37.053100000000001     41.404150000000001
C      43.796870000000006     36.396299999999997     41.048349999999999
C      33.421260000000018     37.855699999999999     37.051350000000006
C      41.291350000000001     43.426900000000003     34.622050000000002
H      41.825409999999998     36.581199999999995     42.231350000000006
H      35.876639000000004     35.032100000000000     41.668050000000001
H      41.468460000000007     42.352599999999995     36.955650000000006
H      38.418240000000004     42.994000000000000     33.833650000000006
H      41.621470000000002     33.949799999999996     40.602150000000002
H      39.740310000000008     32.280000000000001     41.183149999999998
H      37.756280000000004     33.515100000000004     42.465650000000004
H      41.968800000000002     36.635800000000003     39.144650000000006
H      42.646400000000000     38.931600000000003     39.834750000000000
H      42.210920000000002     41.249700000000004     39.367350000000002
H      35.030359999999995     36.502099999999999     37.722950000000004
H      32.979959999999998     37.182600000000008     39.618050000000004
H      33.762360000000001     36.781700000000001     41.093649999999997
H      34.989460000000001     38.407100000000000     40.734250000000003
H      35.448660000000011     38.923400000000001     35.723250000000000
H      36.432418000000006     40.242999999999995     34.502050000000004
H      38.106320000000004     40.267400000000009     34.568250000000006
H      36.125862000000005     42.333799999999997     36.578450000000004
H      37.544330000000009     43.410700000000006     37.201950000000004
H      33.957459999999990     35.009399999999999     38.247550000000004
H      34.594860000000004     34.687100000000001     39.730350000000001
H      32.407960000000003     35.149200000000008     40.995950000000001
H      32.330659999999995     33.670299999999997     39.791150000000002
H      31.338559999999994     35.116799999999998     39.526950000000006
H      37.835499999999996     37.885900000000007     34.178550000000001
H      38.153800000000004     37.439300000000003     35.986850000000004
H      36.353911000000004     36.714500000000001     35.137350000000005
H      43.852460000000008     35.355800000000002     40.938249999999996
H      42.343130000000009     38.125900000000001     41.846850000000003
H      44.390059999999998     36.430700000000002     41.936450000000001
H      44.661440000000006     36.689400000000006     40.126050000000006
H      32.225860000000004     37.633400000000009     37.073750000000004
H      33.473060000000004     37.403900000000007     36.092449999999999
H      33.699260000000010     38.951200000000000     36.718850000000003
H      40.964840000000009     43.719999999999999     33.534349999999996
H      42.320700000000009     43.423000000000002     35.052050000000001
