36

C      39.205449999999999     38.393849999999993     39.839049999999986
C      39.962850000000003     38.661650000000002     38.617749999999994
C      38.870249999999999     38.815550000000002     36.012649999999994
C      37.791850000000011     38.153750000000002     39.713349999999998
C      39.171149999999997     37.201250000000002     40.576550000000005
C      37.652349999999998     38.579950000000004     37.282450000000004
C      40.280250000000009     39.165350000000004     36.162950000000002
C      38.450550000000007     38.328150000000001     38.419350000000001
C      40.759450000000001     39.107550000000003     37.475349999999999
C      36.465850000000003     37.008849999999995     39.385250000000006
C      35.427950000000010     37.143550000000005     38.314649999999993
C      36.445250000000001     37.396550000000005     37.121649999999995
C      34.658150000000006     38.305850000000007     38.611849999999990
C      37.939250000000001     39.773350000000001     36.175149999999995
C      34.505750000000006     35.997450000000001     37.958949999999987
C      39.026650000000004     37.612950000000005     35.106349999999992
C      41.591350000000006     39.787350000000004     35.406249999999993
H      38.986050000000006     36.890250000000002     41.668249999999986
H      41.844250000000002     39.247449999999994     37.673049999999996
H      39.992649999999998     36.440550000000002     40.023149999999987
H      36.116650000000007     36.749250000000004     40.474849999999996
H      36.705050000000000     36.056350000000002     39.083850000000005
H      37.062649999999991     36.547449999999998     36.703250000000004
H      35.985450000000000     37.697650000000003     36.211149999999996
H      37.166950000000000     39.808350000000004     35.406950000000002
H      38.366749999999996     40.656550000000003     36.706550000000000
H      33.522250000000000     36.425950000000000     37.747650000000000
H      34.681350000000009     35.198850000000000     38.632250000000006
H      34.805150000000012     35.767250000000004     37.019150000000003
H      39.068150000000003     36.666050000000006     35.639949999999999
H      38.077650000000006     37.378150000000005     34.465949999999999
H      40.022550000000010     37.159450000000007     34.822949999999999
H      42.477750000000000     39.343349999999994     35.487450000000003
H      41.663550000000001     40.801150000000000     35.453650000000003
H      41.175349999999995     39.608849999999997     34.331750000000007
O      34.445050000000009     39.310250000000003     38.964450000000006
