6

C      37.655200000000001     38.043179999999992     38.667749999999991
C      38.173200000000008     37.622199999999992     37.406950000000002
H      38.065400000000011     37.583780000000004     39.507249999999999
H      37.177699999999994     39.015799999999999     38.733750000000001
H      38.822300000000006     36.984200000000001     36.963250000000002
H      37.903400000000005     38.248910000000009     36.492750000000001
