5

C      38.209795000000000     37.801349999999992     38.239099999999993
H      37.984205000000003     38.898350000000001     38.645499999999991
H      37.202444999999997     37.843249999999998     38.716200000000001
H      38.325614999999999     37.603249999999996     37.101700000000001
H      38.797555000000003     37.101649999999999     38.898299999999999
