126

C      32.034639999999982     41.286349999999992     43.751805000000004
C      33.415939999999992     38.495150000000002     45.838405000000009
C      33.471639999999994     37.179549999999999     46.566305000000000
C      37.250339999999994     36.692250000000001     46.009905000000003
C      37.505340000000004     38.031150000000004     46.576205000000002
C      33.950639999999979     38.867649999999998     44.519604999999999
C      34.838539999999981     36.575949999999999     46.005205000000004
C      36.678139999999999     36.635249999999999     44.478305000000006
C      36.156739999999999     37.154949999999999     46.888204999999999
C      34.510040000000004     37.770949999999999     43.734904999999998
C      35.142539999999997     36.743250000000003     44.493005000000011
C      32.379839999999987     39.471450000000004     46.268204999999995
C      31.451739999999997     37.630849999999995     47.902605000000008
C      31.355439999999998     38.812950000000001     47.132305000000002
C      32.605639999999994     36.708150000000003     47.584005000000005
C      38.308539999999994     35.650449999999999     46.226905000000002
C      39.409039999999990     35.683750000000003     47.227305000000001
C      39.470140000000001     36.868749999999999     47.843405000000004
C      38.620139999999992     38.036349999999992     47.379405000000006
C      34.408439999999999     40.509149999999998     44.140505000000005
C      33.146039999999985     41.435650000000003     44.450105000000008
C      32.212739999999982     40.754849999999998     45.422004999999999
C      35.727439999999987     35.355749999999993     44.028005000000007
C      33.121740000000003     38.523249999999990     43.394705000000002
C      29.805739999999997     38.989449999999991     47.413105000000002
C      33.934739999999991     42.650350000000003     45.158205000000009
C      37.857339999999994     39.427550000000004     47.355305000000001
C      36.643140000000002     36.612949999999998     39.847005000000010
C      38.375940000000000     36.738750000000003     37.922805000000011
C      37.994339999999980     36.613849999999999     39.346705000000000
C      38.898139999999998     36.626950000000001     41.489505000000008
C      37.593739999999997     36.936250000000001     42.071404999999999
C      36.449739999999991     36.601150000000004     41.242005000000006
C      39.316739999999996     36.575850000000003     40.115005000000011
C      37.353439999999992     37.535049999999998     43.351105000000004
C      42.992310000000003     38.827649999999998     31.720725000000005
C      43.428770000000000     40.089050000000000     31.106585000000006
C      40.107640000000004     38.683649999999993     32.371395000000007
C      41.533388000000002     38.529650000000004     32.009845000000006
C      41.779380000000003     40.070050000000002     29.398735000000006
C      40.672139999999999     37.991950000000003     30.938975000000006
C      40.985624000000001     38.891849999999998     29.826835000000003
C      40.369839999999982     39.751350000000002     28.908525000000004
C      43.923130000000000     37.667650000000002     31.254845000000007
C      45.248119999999986     37.972850000000001     30.724915000000006
C      45.744389999999996     39.352950000000000     30.582735000000007
C      44.703350000000000     40.367149999999995     30.422375000000002
C      43.711359999999999     36.163849999999996     31.623525000000004
C      42.388570000000001     35.674349999999997     32.060115000000003
C      44.924009999999996     35.434749999999994     31.176625000000005
C      45.742620000000002     36.466050000000003     30.534805000000006
C      41.006037000000006     35.158050000000003     31.903135000000002
C      41.790291999999994     34.547249999999998     32.754005000000006
C      39.657639999999986     35.943049999999999     32.653735000000012
C      39.536439999999999     37.430549999999997     31.464885000000006
C      42.008269999999996     40.860849999999999     30.735835000000005
C      43.213080000000005     40.061949999999996     28.597175000000007
C      44.469409999999996     40.993650000000002     29.009785000000008
C      39.934640000000002     36.326149999999998     33.996355000000001
C      42.045770000000005     33.892349999999993     34.167295000000010
C      38.061639999999997     37.751049999999999     30.953175000000005
C      37.206040000000002     38.058550000000004     32.315405000000005
C      36.129339999999999     36.986149999999995     32.856995000000012
C      44.705680000000001     41.382750000000001     31.308905000000006
C      45.630699999999990     40.436050000000002     28.201365000000006
H      34.581739999999982     35.490549999999999     46.071704999999994
H      36.039339999999996     36.891649999999998     47.838504999999998
H      30.729339999999990     37.294850000000004     48.772205000000000
H      29.362139999999993     39.612749999999998     46.624105000000000
H      32.550439999999995     35.740749999999998     48.051105000000007
H      38.052739999999986     34.752749999999999     45.550304999999994
H      40.198939999999979     37.006050000000002     48.634105000000005
H      34.979140000000001     40.550350000000002     45.103005000000010
H      35.187339999999978     40.624250000000004     43.364405000000005
H      31.568439999999992     41.490449999999996     45.977105000000009
H      33.459739999999996     39.346550000000001     42.748604999999998
H      32.389339999999990     37.746150000000000     42.889904999999999
H      29.375939999999996     37.994050000000001     47.149905000000004
H      29.195739999999997     39.653950000000002     48.276305000000008
H      34.398539999999997     43.149549999999998     44.384905000000003
H      34.384439999999984     42.185349999999993     46.057005000000004
H      33.217839999999995     43.330649999999999     45.601905000000002
H      38.287840000000003     40.092350000000003     48.094805000000008
H      35.890439999999998     36.561450000000001     39.172805000000011
H      39.681439999999995     36.260849999999998     42.191704999999999
H      35.313339999999982     36.304050000000004     41.366105000000005
H      40.156340000000000     36.620049999999999     39.323605000000001
H      38.271439999999998     37.944150000000000     43.744205000000008
H      36.552239999999983     38.323149999999998     43.297105000000002
H      45.560730000000007     39.399450000000002     27.775285000000007
H      38.884139999999988     40.873550000000002     27.518075000000007
H      39.305539999999993     41.278649999999999     29.452015000000003
H      39.182140000000004     36.985149999999997     35.913395000000001
H      37.929639999999978     40.054949999999998     46.383804999999995
H      45.025550000000010     42.402849999999994     30.929715000000005
H      39.229540000000000     34.591749999999998     48.778705000000002
H      39.839339999999979     39.676050000000004     32.157065000000003
H      41.023359999999997     41.047150000000002     31.158335000000005
H      46.804259999999999     39.722349999999999     30.400185000000008
H      45.050929999999994     34.423749999999998     31.215585000000008
H      46.750410000000002     36.870649999999998     30.158805000000005
H      40.666039999999981     34.437249999999999     30.787345000000006
H      39.126339999999985     35.104050000000001     32.633795000000006
H      42.021510000000006     41.690849999999998     29.944685000000003
H      43.151560000000003     40.289850000000001     27.564735000000002
H      43.749030000000005     39.080849999999998     28.484735000000008
H      44.084449999999990     41.948149999999998     29.227365000000002
H      41.148860999999997     34.106650000000002     34.552055000000010
H      42.237330000000000     32.669350000000001     34.320725000000003
H      42.879919999999998     34.483350000000002     34.389045000000003
H      37.642939999999996     36.938050000000004     30.189185000000002
H      37.960339999999988     38.559549999999994     30.210815000000007
H      37.401740000000004     38.590850000000003     33.197685000000007
H      36.570740000000001     38.802149999999997     31.795125000000006
H      36.560939999999988     36.159150000000004     32.283935000000007
H      35.197839999999999     36.782049999999998     32.297215000000008
H      35.787239999999997     36.876049999999992     34.109725000000012
H      45.131119999999996     41.575949999999999     32.300085000000003
H      45.436760000000007     41.093849999999996     27.221295000000001
H      46.770179999999996     40.680350000000004     28.568045000000001
N      39.080839999999981     40.438850000000002     28.559325000000001
O      31.737539999999992     41.448149999999998     42.628805000000000
O      35.387339999999995     34.625250000000001     43.153805000000006
O      39.902039999999985     34.498049999999999     48.035505000000001
O      38.043539999999979     37.143050000000002     36.850905000000012
O      40.221839999999986     36.741450000000000     35.084055000000006
