5

C      38.120199999999997     37.764049999999997     37.728099999999998
H      38.318000000000005     37.682050000000004     38.817099999999996
H      38.575499999999998     38.861249999999998     37.726799999999997
H      37.115000000000002     37.396850000000001     37.380600000000001
H      38.884999999999998     37.138750000000002     37.182900000000004
