5

C      37.757950000000008     37.681500000000000     38.060349999999993
H      38.014949999999999     38.718099999999993     38.232350000000004
H      37.096350000000001     37.281900000000007     38.861550000000001
H      37.239550000000008     37.435300000000012     37.138449999999999
H      38.903649999999999     37.359600000000000     38.031849999999999
