5

C      37.799249999999994     38.243649999999988     37.875449999999994
H      37.206949999999999     38.575949999999992     37.089950000000002
H      37.798850000000002     37.198949999999996     37.925150000000002
H      37.240349999999999     38.286749999999998     38.910049999999998
H      38.793050000000001     38.801050000000004     37.847850000000001
