97

C      39.325999999999993     39.874599999999994     33.601854999999993
C      38.771800000000006     38.629700000000000     33.002355000000001
C      35.802900000000001     36.101399999999991     32.222075000000004
C      35.116000000000000     37.158899999999996     31.303854999999999
C      36.499100000000006     41.013499999999993     32.131925000000003
C      37.518000000000001     37.951900000000002     32.557465000000001
C      37.037800000000004     36.512200000000000     32.532105000000001
C      35.632000000000005     38.650100000000002     30.749894999999995
C      36.039300000000004     39.701499999999996     31.854215000000003
C      36.170400000000001     38.262699999999988     32.132584999999999
C      37.681200000000004     41.621099999999998     32.512464999999992
C      39.123800000000003     41.225499999999990     32.963054999999997
C      41.739000000000004     36.288599999999995     33.108454999999999
C      41.497400000000006     37.817700000000002     32.910854999999998
C      37.239200000000004     41.662599999999998     31.090254999999999
C      38.163700000000006     40.789000000000001     30.038955000000001
C      33.699899999999992     36.591499999999996     30.642265000000002
C      40.244300000000003     38.714399999999998     33.054055000000005
C      40.841200000000001     36.615200000000002     31.913505000000001
C      39.979399999999998     41.053399999999996     34.367954999999995
C      39.789799999999993     36.777699999999996     37.878554999999992
C      39.547600000000003     35.750799999999998     39.020555000000002
C      40.471700000000006     40.086399999999990     41.564655000000002
C      40.644099999999995     38.972899999999996     42.509054999999996
C      40.126499999999993     38.086399999999990     38.429354999999994
C      39.304900000000004     35.929699999999997     40.426754999999993
C      40.082499999999996     39.763100000000001     40.198754999999998
C      40.115000000000002     37.537799999999997     42.346354999999996
C      40.131000000000000     38.251099999999994     39.891054999999994
C      39.881100000000004     37.216299999999997     40.938055000000006
C      40.274400000000000     36.014600000000002     36.645155000000003
C      39.932000000000002     34.609799999999993     36.206654999999998
C      39.630500000000005     33.517199999999995     37.245955000000002
C      39.336400000000005     34.365499999999997     38.589755000000004
C      40.665799999999997     41.512199999999993     42.066055000000006
C      41.118499999999997     41.549900000000001     43.523555000000002
C      41.381700000000002     40.508400000000002     44.469954999999999
C      41.288699999999999     39.135700000000000     43.861054999999993
C      41.175099999999993     36.709499999999998     35.639654999999998
C      42.419899999999991     37.128700000000002     36.120154999999997
C      41.403399999999998     35.816499999999991     34.474554999999995
C      40.644499999999994     34.603400000000001     34.883655000000005
C      40.439999999999998     38.888399999999990     37.137454999999996
C      41.351199999999999     38.113299999999995     35.952655000000000
C      38.641300000000001     34.474499999999999     40.645154999999995
C      37.934499999999993     34.115499999999997     39.183755000000005
C      40.521200000000000     33.488299999999995     38.652855000000002
C      39.494800000000005     40.718299999999992     39.433755000000005
C      39.459299999999999     42.186299999999989     39.925255000000000
C      40.072599999999994     42.510199999999998     41.405055000000004
C      40.071799999999996     36.916199999999996     43.587455000000006
C      40.739700000000006     37.844899999999996     44.702455000000000
C      42.352300000000000     38.242399999999996     44.602554999999995
C      40.928099999999993     42.958399999999997     44.128455000000002
C      40.751800000000003     41.050500000000000     45.854955000000004
H      35.547600000000003     34.835599999999999     32.144505000000002
H      37.860700000000001     35.745399999999997     32.913955000000001
H      36.227500000000006     38.444600000000001     29.763775000000003
H      39.753999999999998     40.986199999999997     32.163265000000003
H      42.759299999999996     36.132100000000001     32.939755000000005
H      36.927600000000005     42.814099999999996     30.760404999999992
H      38.830900000000000     39.993299999999998     30.219155000000001
H      37.710900000000002     40.058699999999995     29.308444999999999
H      38.815999999999995     41.563999999999993     29.513064999999990
H      33.844500000000004     35.613500000000002     30.698864999999998
H      33.494600000000005     36.989100000000001     29.561695000000000
H      32.792800000000000     36.989899999999999     31.162044999999999
H      40.991300000000003     41.310099999999991     34.622955000000005
H      39.587499999999999     41.073399999999999     35.351555000000005
H      39.511099999999999     32.420099999999998     36.803455000000000
H      43.207200000000000     36.756999999999998     36.787455000000001
H      40.570799999999998     33.859000000000002     34.097954999999999
H      39.277300000000004     39.153599999999997     36.581854999999997
H      41.487900000000003     38.785100000000000     35.053854999999999
H      40.840000000000003     40.031199999999998     37.420355000000001
H      37.828200000000002     34.767099999999999     41.433855000000001
H      39.187600000000003     33.535399999999996     41.093455000000006
H      37.830800000000004     32.919599999999996     38.841355000000000
H      37.301200000000001     34.992199999999997     38.597555000000000
H      41.498299999999993     33.954999999999998     38.540655000000001
H      40.810900000000004     32.630099999999999     39.040954999999990
H      39.069200000000002     40.213999999999999     38.688354999999994
H      39.834399999999995     42.779999999999994     39.122955000000005
H      38.511899999999997     42.325600000000001     40.090355000000002
H      39.405900000000003     43.334099999999992     41.846555000000002
H      40.561400000000006     43.516199999999998     41.357655000000001
H      39.061700000000002     36.469099999999997     43.890455000000003
H      40.709000000000003     35.948999999999998     43.429654999999990
H      40.280599999999993     38.063200000000002     45.626054999999994
H      42.584699999999998     38.340399999999988     45.636354999999995
H      43.008700000000005     37.502499999999998     43.887155000000000
H      40.016099999999994     40.256499999999996     45.905455000000003
H      40.010399999999997     41.914499999999997     46.301455000000004
H      41.484999999999992     40.854399999999998     46.691555000000001
H      42.294800000000002     38.475899999999996     32.511595000000000
O      39.886500000000005     36.293199999999999     31.352975000000001
O      40.672300000000000     43.579900000000002     44.962055000000007
