200

C      37.418624999999999     36.504349999999995     29.112339999999993
C      38.649725000000004     37.149850000000001     28.252959999999998
C      41.475225000000002     39.693849999999998     35.551499999999990
C      39.134425000000007     40.198149999999998     35.078479999999999
C      39.246725000000005     41.592549999999996     35.402029999999996
C      40.543425000000006     42.227149999999995     35.635869999999997
C      41.551124999999999     41.109349999999999     35.953939999999989
C      42.597924999999996     40.164850000000001     36.299040000000005
C      40.729225000000000     43.643949999999997     35.305849999999992
C      43.417825000000008     41.189550000000004     32.788290000000003
C      44.623825000000004     42.037849999999999     32.782629999999997
C      44.526125000000008     43.449649999999991     32.894019999999998
C      43.474124999999994     44.173150000000000     33.507880000000000
C      42.160224999999997     43.446849999999998     33.244259999999997
C      42.234524999999998     42.036950000000004     32.875609999999995
C      40.907625000000003     44.133449999999996     33.892550000000000
C      38.448225000000008     34.350250000000003     33.507400000000004
C      39.347725000000004     33.600850000000001     34.408389999999997
C      41.527625000000008     34.254350000000002     33.250109999999992
C      40.952424999999998     35.435050000000004     33.715900000000005
C      40.730425000000004     34.327249999999999     34.610200000000006
C      40.941224999999996     36.793550000000003     34.005609999999990
C      40.250025000000008     39.154949999999992     34.854369999999989
C      39.995824999999996     37.703250000000004     34.754390000000001
C      40.691525000000006     38.243549999999999     33.570800000000006
C      36.067685000000004     33.825350000000000     34.490679999999998
C      36.405895000000001     32.456649999999996     34.846949999999993
C      37.650624999999998     31.807250000000003     35.261820000000000
C      38.956424999999996     32.419049999999991     35.076750000000004
C      37.192625000000007     34.720350000000003     34.001279999999994
C      37.050525000000007     36.084250000000004     31.929410000000001
C      36.118695000000002     36.974649999999997     31.079799999999988
C      42.692924999999995     33.817050000000002     32.459069999999997
C      37.367024999999998     36.945749999999997     30.901810000000001
C      37.969925000000003     35.392749999999999     32.888579999999990
C      44.092824999999998     40.249150000000000     36.458539999999985
C      35.307895000000002     35.861950000000000     38.159839999999988
C      36.166495000000005     35.636049999999997     39.365740000000002
C      29.553235000000001     37.475549999999998     41.322040000000001
C      33.804155000000009     35.633150000000001     37.909739999999999
C      30.380955000000007     36.665549999999996     42.512940000000000
C      35.839745000000001     34.757449999999999     40.483140000000006
C      30.762265000000006     37.940449999999998     41.862840000000006
C      33.380385000000004     36.521849999999993     44.855140000000006
C      33.828605000000003     36.389650000000003     43.288539999999998
C      32.942835000000002     35.214550000000003     39.087039999999988
C      32.793595000000003     37.129649999999991     43.822940000000003
C      33.244205000000008     35.264650000000003     40.491139999999987
C      35.142055000000006     37.101450000000000     43.021239999999992
C      34.578085000000002     35.254649999999998     40.967739999999992
C      33.615035000000006     35.755250000000004     41.894039999999990
C      31.432974999999999     37.552649999999993     43.008539999999996
C      37.137625000000007     34.984150000000000     41.266139999999993
C      37.392725000000006     34.434249999999992     42.480540000000005
C      35.409285000000004     36.876550000000002     37.166139999999984
C      36.911825000000007     37.217550000000003     37.376239999999996
C      38.255924999999998     37.398149999999994     37.002139999999997
C      38.018325000000004     37.212850000000003     38.471339999999984
C      37.517425000000003     36.435549999999999     39.553039999999996
C      38.214824999999998     35.812550000000002     40.670239999999993
C      33.076115000000001     36.264749999999999     36.711939999999984
C      34.366795000000003     37.083350000000003     35.983839999999987
C      39.300225000000005     36.827350000000003     36.114440000000002
C      29.554765000000003     37.020550000000000     39.838939999999994
C      29.577345000000001     38.929349999999999     41.662139999999994
C      29.656075000000005     35.102550000000001     42.817740000000001
C      33.754785000000005     35.628450000000001     45.951040000000006
C      38.799824999999998     37.705949999999994     45.776539999999997
C      40.360624999999999     41.449349999999995     43.200140000000005
C      38.009725000000003     38.904350000000001     45.126039999999989
C      38.940024999999999     40.962650000000004     43.459239999999994
C      37.813425000000002     38.766849999999991     46.444239999999994
C      40.846925000000006     42.968749999999993     44.014939999999996
C      38.677225000000000     41.261250000000004     47.857539999999986
C      39.435225000000003     42.508350000000000     47.565439999999995
C      38.875125000000004     40.090150000000001     44.753140000000002
C      38.406924999999994     40.157049999999998     47.067840000000004
C      39.815625000000004     42.297449999999991     46.152339999999995
C      39.170124999999999     40.909050000000001     45.975839999999991
C      35.505785000000003     38.256149999999998     43.961539999999999
C      34.846565000000005     39.014150000000001     42.749039999999994
C      36.889925000000005     38.582249999999995     44.063440000000000
C      38.302025000000000     40.351450000000000     42.246639999999999
C      37.536925000000004     38.756549999999997     42.674239999999998
C      37.833125000000010     41.732449999999993     42.934340000000006
C      40.028525000000002     37.586749999999995     46.696839999999995
C      40.713324999999998     43.155950000000004     45.384240000000005
C      42.751325000000008     40.818449999999999     39.576840000000004
C      41.428825000000003     41.454049999999995     39.969739999999987
C      44.652125000000005     34.118850000000002     41.494739999999993
C      41.926425000000009     40.283349999999992     40.706739999999996
C      43.084525000000006     34.950650000000003     42.708039999999997
C      44.560425000000009     38.918150000000004     40.457840000000004
C      44.739625000000004     35.661450000000002     41.324039999999997
C      43.338825000000007     38.202150000000003     44.654139999999984
C      44.459025000000004     38.183250000000001     43.841639999999984
C      43.281625000000005     39.685250000000003     40.225639999999984
C      44.191825000000009     37.577249999999992     42.614639999999994
C      44.883925000000005     37.807450000000003     41.238540000000000
C      43.593325000000000     36.183149999999998     42.088239999999985
C      45.922624999999996     39.193849999999991     40.991140000000001
C      45.500925000000002     36.627649999999996     40.615639999999999
C      40.685224999999996     43.599049999999998     39.128540000000001
C      40.656025000000007     43.601750000000003     40.793539999999993
C      40.379825000000004     42.383150000000001     40.046840000000003
C      41.937925000000000     43.576650000000001     41.840339999999998
C      41.357724999999995     44.080849999999998     43.270139999999984
C      46.984225000000009     39.994850000000000     41.403339999999986
C      39.579125000000005     44.438350000000000     38.292839999999998
C      39.012425000000007     41.778449999999999     39.597539999999995
H      37.485824999999998     35.238650000000000     29.117049999999995
H      38.400525000000002     37.667349999999999     27.257760000000001
H      39.183825000000006     36.256650000000000     27.721079999999997
H      39.253225000000008     37.801949999999998     28.941129999999998
H      36.520825000000002     36.716349999999998     28.517249999999994
H      40.068125000000009     39.793550000000003     31.625600000000002
H      38.239225000000005     39.924350000000004     34.674970000000002
H      38.395525000000006     42.301150000000000     35.183729999999997
H      39.802124999999997     44.244050000000001     35.498249999999999
H      41.589124999999996     44.246349999999993     36.059339999999992
H      43.108224999999997     40.286449999999995     32.357839999999996
H      45.669725000000000     41.992249999999991     32.468530000000001
H      45.602325000000000     44.077350000000003     32.824889999999996
H      43.549925000000002     45.258850000000002     33.787390000000002
H      41.227424999999997     41.640549999999998     33.086460000000002
H      39.941024999999996     43.816450000000003     33.353259999999992
H      40.893724999999996     45.250349999999997     33.956169999999986
H      41.344825000000000     34.009450000000001     35.592870000000005
H      35.006955000000005     34.260249999999999     34.608170000000001
H      35.517725000000006     31.960849999999994     35.067099999999996
H      37.722724999999997     30.741149999999998     35.284219999999991
H      39.802325000000003     31.979350000000004     35.688149999999993
H      35.048575000000000     37.435450000000003     31.513139999999996
H      38.440125000000009     37.540350000000004     31.075119999999995
H      39.457124999999998     35.773550000000000     44.727139999999991
H      44.557224999999995     39.497249999999994     35.941139999999990
H      44.227225000000004     40.136350000000000     37.531639999999996
H      44.580125000000002     41.197450000000003     36.293739999999985
H      37.662625000000006     35.918550000000003     44.758840000000006
H      36.643825000000007     41.799450000000000     43.262939999999986
H      36.805125000000004     38.701250000000002     46.571740000000005
H      29.348725000000005     35.959049999999998     39.641139999999993
H      35.938745000000004     36.605149999999995     42.303339999999992
H      32.185575000000000     34.653350000000003     38.679339999999996
H      39.329125000000005     35.924450000000000     40.991339999999994
H      32.238304999999997     36.895750000000000     37.110739999999993
H      32.669775000000008     35.304450000000003     36.360239999999990
H      34.404815000000006     38.195149999999998     35.986239999999995
H      34.495995000000008     36.593549999999993     35.004949999999994
H      40.262825000000007     36.735549999999996     36.524739999999994
H      39.037524999999995     35.864849999999997     35.811949999999996
H      28.759575000000005     37.197150000000001     39.279539999999997
H      30.428905000000000     37.567850000000000     39.371639999999999
H      29.144025000000003     39.211849999999998     42.685239999999993
H      29.808765000000005     39.645250000000004     40.982540000000000
H      28.924665000000005     34.660750000000000     42.038639999999987
H      29.313225000000003     34.653550000000003     43.792039999999986
H      30.378375000000002     34.389450000000004     42.859139999999996
H      34.361975000000008     34.764350000000000     45.534540000000007
H      32.837315000000004     35.006950000000003     46.278139999999993
H      34.401005000000005     36.262850000000000     46.604939999999999
H      40.709024999999997     41.285249999999991     42.030139999999989
H      38.006225000000008     41.383749999999999     48.742239999999995
H      39.844425000000001     43.085249999999995     48.204040000000006
H      35.034985000000006     38.135449999999992     45.085239999999999
H      36.803225000000005     38.308549999999997     41.991540000000001
H      38.219325000000005     37.974849999999996     42.523539999999997
H      37.625225000000000     40.767649999999996     41.387339999999995
H      38.169924999999999     42.785049999999998     43.170039999999986
H      40.645025000000004     36.682749999999999     46.364140000000006
H      40.779425000000003     38.405749999999998     46.701639999999998
H      39.843125000000001     37.182949999999998     47.625940000000000
H      40.843325000000000     40.405250000000002     43.602139999999991
H      40.897624999999998     43.998649999999991     45.849939999999989
H      40.995925000000007     39.476849999999999     41.007739999999998
H      45.247225000000000     33.576349999999998     40.820040000000006
H      42.983125000000001     34.913350000000001     43.744139999999987
H      45.401525000000007     38.617249999999999     43.899239999999992
H      45.921824999999998     36.438650000000003     39.599140000000006
H      41.586225000000006     43.486650000000004     38.408739999999995
H      39.674125000000004     43.690949999999994     41.346140000000005
H      42.579025000000001     42.788049999999998     42.172539999999984
H      42.648424999999996     44.066849999999995     41.377240000000000
H      41.395525000000006     45.170850000000002     43.863640000000004
H      47.196925000000000     40.914349999999999     41.090540000000004
H      47.240424999999995     39.851550000000003     42.506239999999991
H      38.763125000000002     43.682549999999999     37.930939999999993
H      39.187725000000007     45.187949999999994     38.865439999999992
H      39.936525000000003     45.049450000000000     37.324640000000002
H      38.417525000000005     42.562350000000002     39.684539999999998
H      38.917325000000005     41.512649999999994     38.399240000000006
H      38.901425000000003     40.848849999999992     39.968039999999988
H      41.513725000000008     38.468550000000000     31.425160000000002
N      40.536225000000002     38.864850000000004     31.939260000000001
N      38.666125000000008     36.246949999999998     45.280139999999989
N      43.661725000000004     33.775649999999999     42.281540000000007
O      43.571625000000004     33.383450000000003     31.977349999999998
O      34.770845000000008     39.877450000000003     42.031940000000006
O      42.606325000000005     38.127050000000004     45.455939999999998
O      37.834524999999999     34.234749999999998     43.571740000000005
