5

C      37.864099999999993     37.927349999999990     38.297449999999998
H      38.888299999999994     37.876950000000008     38.740750000000006
H      37.111700000000006     37.130250000000004     38.162650000000014
H      37.447400000000002     38.869749999999996     37.853250000000003
H      38.264600000000002     37.923450000000003     37.259249999999994
