6

C      38.750000000000000     38.486399999999989     37.315949999999994
C      37.253300000000003     38.066299999999998     37.319249999999990
C      37.479600000000005     37.488500000000002     38.434649999999991
H      36.418800000000005     38.034899999999993     36.616749999999996
O      39.581199999999995     39.203400000000002     36.952649999999991
O      37.237900000000003     36.796599999999998     39.383250000000004
