42

C      37.930999999999997     38.147699999999993     38.200249999999997
C      37.444800000000001     37.600999999999999     36.909349999999989
C      34.662900000000000     41.686799999999998     37.418149999999997
C      37.488100000000003     39.510300000000001     38.686350000000004
C      36.382200000000005     38.497099999999989     36.216250000000002
C      35.848800000000004     41.415399999999998     38.173550000000006
C      34.721400000000003     38.335999999999999     36.910350000000008
C      36.304000000000002     40.014299999999999     37.959150000000008
C      35.518800000000006     39.569300000000005     36.832049999999995
C      38.975200000000001     37.361899999999999     38.856350000000006
C      39.642399999999995     36.128700000000002     38.301449999999988
C      38.681300000000000     35.457799999999999     37.349649999999997
C      37.827700000000000     36.273299999999999     36.423850000000002
C      39.686900000000001     37.810099999999991     40.145949999999999
C      40.963299999999997     37.176200000000001     40.517849999999996
C      41.366200000000006     36.047600000000003     39.858249999999998
C      39.506799999999998     39.296500000000002     40.418549999999996
C      38.169300000000000     40.082500000000003     39.961950000000002
C      38.951299999999996     34.045200000000001     36.903949999999995
C      37.739500000000007     34.428300000000000     34.880750000000006
C      37.259099999999997     35.698599999999999     35.265950000000004
C      39.148999999999994     38.144199999999991     41.477050000000006
C      34.621399999999994     40.820799999999991     36.070650000000001
H      41.130400000000002     34.731700000000004     38.099849999999989
H      33.742200000000004     40.624799999999993     35.710949999999997
H      37.444499999999998     39.877299999999998     40.881850000000000
H      34.084600000000002     42.603699999999996     37.560450000000003
H      36.310900000000004     38.384000000000000     35.139049999999997
H      36.510200000000005     42.092700000000001     38.882350000000002
H      34.129899999999999     38.029200000000003     36.154949999999999
H      41.437099999999994     37.610599999999998     41.558250000000001
H      40.426000000000002     39.259200000000000     39.732050000000001
H      38.212100000000007     41.276000000000003     39.911349999999999
H      39.541600000000003     33.396300000000004     37.489949999999993
H      37.362300000000005     34.039500000000004     33.849249999999998
H      36.598000000000006     36.191900000000004     34.540649999999999
H      35.015500000000003     41.273900000000005     35.090750000000000
H      34.570100000000004     37.691400000000002     37.747850000000000
H      42.257799999999996     35.400199999999998     40.215249999999997
N      40.928500000000007     35.679899999999996     38.526250000000005
N      38.452900000000007     33.626800000000003     35.762850000000000
O      38.238400000000006     37.735700000000001     42.150750000000002
