5

C      37.865749999999991     38.136049999999997     38.126549999999995
H      38.897349999999996     38.019649999999999     37.847650000000002
H      37.381349999999998     38.897549999999995     38.816850000000002
H      37.772949999999994     37.102450000000005     38.649649999999994
H      37.102650000000004     38.267150000000001     37.183149999999998
