40

C      39.785449999999997     34.190299999999993     39.070864999999998
C      35.217750000000002     37.501399999999990     39.684464999999996
C      36.711850000000005     37.580900000000000     39.374365000000004
C      37.758950000000006     41.228300000000004     37.770335000000003
C      38.038550000000008     37.712199999999996     39.198665000000005
C      37.162150000000004     40.279199999999989     38.622795000000004
C      35.012150000000005     41.731499999999997     38.476245000000006
C      37.340750000000000     38.957099999999997     39.355964999999998
C      36.517150000000001     41.532100000000000     38.580045000000005
C      40.734750000000005     37.553799999999995     39.030865000000006
C      42.220050000000008     37.154899999999998     38.941524999999999
C      41.798850000000009     38.451899999999995     38.923165000000004
C      34.709450000000004     36.583600000000004     40.797165000000007
C      39.429150000000000     37.076199999999986     39.335664999999999
C      39.479750000000003     35.578100000000006     39.463865000000006
C      40.865749999999998     34.979500000000002     39.467665000000004
C      42.142749999999999     35.740099999999998     39.086065000000005
C      33.850750000000005     37.385499999999993     40.166264999999996
C      39.974350000000001     32.705100000000002     38.853725000000004
C      38.985950000000003     40.954899999999995     36.919295000000005
C      34.238350000000004     41.305599999999998     37.651505000000007
C      38.312149999999995     41.439899999999994     35.285075000000006
C      39.487250000000003     42.044599999999988     36.110465000000005
C      39.397050000000000     43.488000000000000     36.764315000000003
H      42.872149999999998     39.677999999999997     37.606975000000006
H      34.599950000000000     35.748499999999993     41.651064999999996
H      43.089350000000003     35.160399999999996     39.335365000000003
H      32.910650000000004     37.843900000000005     40.364965000000005
H      39.313750000000006     40.052599999999998     37.272005000000000
H      34.607250000000001     42.607599999999991     39.001965000000006
H      34.601350000000004     40.294600000000003     37.349145000000000
H      33.216549999999998     41.588700000000003     37.642635000000006
H      37.388050000000000     41.738699999999994     35.650575000000003
H      38.448650000000008     41.099900000000005     34.348935000000004
H      40.437950000000001     41.668999999999997     35.790165000000002
H      39.227250000000005     44.376400000000004     36.217935000000004
H      39.016649999999998     43.534999999999997     37.699435000000001
H      40.427149999999997     43.899299999999997     36.528225000000006
O      40.198650000000008     31.623600000000000     38.809645000000003
O      41.896450000000009     39.849000000000004     38.311745000000002
