45

C      40.175394999999995     41.863849999999992     37.103999999999999
C      34.036505000000005     41.555650000000000     34.601300000000009
C      36.585894999999994     39.086749999999995     37.793900000000008
C      35.943895000000005     37.920249999999996     38.420100000000005
C      40.139395000000000     35.948450000000001     42.831800000000001
C      39.498595000000002     36.877749999999999     41.764499999999998
C      37.792994999999991     39.478049999999996     38.640900000000002
C      36.492894999999997     37.044449999999998     39.513700000000000
C      39.574995000000001     39.111149999999995     40.341200000000001
C      38.469095000000003     36.326650000000001     40.970199999999991
C      38.455095000000000     38.676850000000002     39.643400000000000
C      37.833295000000000     37.267650000000003     39.952799999999996
C      36.162295000000000     39.630150000000000     36.494600000000005
C      34.846494999999997     39.325550000000000     35.876900000000006
C      34.196455000000000     38.205050000000000     36.672800000000009
C      34.746675000000003     37.405850000000001     37.701999999999998
C      40.196894999999998     38.102050000000006     41.234999999999999
C      41.185195000000000     35.078749999999999     42.913400000000010
C      41.792094999999996     33.283249999999995     41.337800000000001
C      36.941495000000003     40.553549999999994     35.590200000000010
C      36.693494999999999     41.242049999999999     34.498000000000005
C      35.259495000000001     40.803750000000001     34.072500000000005
C      34.352415000000001     39.816850000000002     34.547200000000004
C      38.096695000000004     40.891050000000000     38.161200000000008
C      34.440384999999999     39.170249999999996     33.336199999999991
H      35.854395000000004     36.163950000000000     39.753600000000006
H      39.955595000000002     40.430350000000004     40.258099999999999
H      37.990295000000003     35.386249999999997     41.124000000000009
H      33.299505000000003     38.059950000000001     35.857799999999997
H      34.477625000000003     36.379049999999999     37.747000000000000
H      40.768794999999997     38.724149999999995     41.838200000000001
H      42.139095000000005     35.477350000000001     42.462299999999999
H      38.020095000000005     40.759850000000000     36.025300000000001
H      37.048295000000003     42.167950000000005     34.122299999999996
H      38.318794999999994     41.589250000000000     38.917800000000000
H      37.452494999999999     41.080750000000002     37.488399999999999
H      35.121494999999996     38.368049999999997     33.045100000000005
H      33.514854999999997     39.104749999999996     32.883200000000002
H      39.951895000000000     33.971850000000003     41.509399999999999
H      39.134594999999990     35.575050000000005     43.116799999999998
N      40.916794999999993     33.888050000000000     42.085599999999999
O      39.608995000000000     40.831350000000000     37.465999999999994
O      40.493794999999992     43.045950000000005     37.091600000000000
O      33.596445000000003     42.171750000000003     35.562700000000007
O      42.700494999999997     32.954049999999995     40.810499999999990
