9

C      37.617199999999997     38.788749999999993     37.303100000000001
C      38.961500000000001     37.376750000000001     38.145099999999999
C      38.490299999999991     38.725749999999998     38.740099999999998
H      38.148600000000002     39.583549999999995     36.427800000000005
H      37.256399999999999     37.785649999999997     37.012699999999995
H      39.269499999999994     39.536949999999997     38.821700000000007
H      37.715000000000003     38.491050000000001     39.572199999999995
H      36.730500000000006     39.207850000000001     37.799700000000001
O      39.178200000000004     36.416450000000005     37.557000000000002
