50

C      37.604599999999991     37.617999999999995     38.290249999999993
C      38.375399999999992     36.483199999999997     38.731249999999996
C      39.213799999999999     40.465999999999994     42.444650000000003
C      37.507199999999997     38.873900000000006     39.121150000000000
C      38.651699999999991     36.767899999999997     40.249349999999993
C      38.715099999999993     40.380200000000002     40.868749999999991
C      38.230699999999992     39.025199999999998     40.414050000000003
C      39.008699999999997     37.903499999999994     41.066250000000004
C      37.145800000000001     37.581000000000003     36.842449999999999
C      37.578800000000001     36.896899999999988     35.571750000000002
C      39.746899999999997     34.937299999999993     36.512649999999994
C      39.151499999999992     35.494699999999995     37.900150000000004
C      36.642699999999998     38.854099999999988     36.202150000000003
C      36.374099999999999     38.730800000000002     34.802550000000004
C      36.852399999999989     37.419799999999995     34.369750000000003
C      37.597799999999999     36.073999999999998     34.476050000000001
C      36.386699999999998     39.995199999999997     37.106050000000003
C      36.893400000000000     40.009399999999999     38.479649999999999
C      36.813000000000002     41.108500000000006     39.582449999999994
C      37.617500000000000     41.268299999999996     40.749050000000004
C      39.391899999999993     36.609099999999998     41.396050000000002
C      40.076699999999995     40.875399999999999     41.155549999999998
C      40.378200000000000     34.753000000000000     37.785350000000001
C      39.889899999999997     34.836500000000001     35.162950000000002
C      38.416799999999995     34.855599999999995     34.178850000000004
C      35.479799999999997     39.600600000000000     33.984849999999994
C      34.712899999999998     40.360599999999991     35.028350000000003
C      35.842199999999998     41.099199999999996     36.224850000000004
C      41.115999999999993     39.694699999999997     40.942550000000004
H      39.578799999999994     39.603499999999997     42.861349999999995
H      36.624299999999998     42.102199999999996     39.089350000000003
H      35.868400000000001     40.674099999999996     40.103949999999990
H      37.704999999999991     41.991399999999999     41.518549999999998
H      40.175300000000000     36.331999999999994     42.016249999999999
H      40.150399999999991     41.855999999999995     40.737149999999993
H      41.283699999999996     34.061000000000007     38.025150000000004
H      40.291899999999991     33.897800000000004     34.809549999999994
H      40.641700000000000     35.655900000000003     34.834049999999998
H      37.798600000000000     33.929199999999994     34.106749999999991
H      38.837699999999991     34.865899999999996     33.034250000000000
H      36.113700000000001     40.266999999999996     33.330050000000000
H      35.013399999999997     39.058299999999988     33.129649999999998
H      34.379199999999990     41.272199999999998     34.608049999999999
H      33.959099999999999     39.687399999999997     35.622550000000004
H      36.638500000000001     41.666899999999998     35.848950000000002
H      35.373899999999999     42.059799999999996     36.931449999999998
H      38.839199999999998     41.255399999999995     42.965750000000000
H      41.405599999999993     39.186599999999999     41.807949999999998
H      40.654199999999996     39.016300000000001     40.197949999999992
H      42.040900000000001     39.943299999999994     40.194050000000004
