49

C      41.006189499999991     37.428049999999999     35.143395999999996
C      37.691089499999990     37.239249999999998     38.924655000000001
C      38.163789499999993     38.690349999999995     39.241554999999998
C      42.247289499999994     36.556849999999997     37.688105000000000
C      38.510289499999985     36.101550000000003     38.621194999999993
C      39.412589499999996     39.218549999999993     38.727415000000001
C      41.026489499999983     35.910250000000005     38.350264999999993
C      41.550489499999983     37.982249999999993     37.550834999999999
C      39.810989499999991     36.680949999999996     38.260615000000001
C      40.147389499999989     38.155749999999998     38.141624999999998
C      36.372889499999985     36.954549999999998     39.477274999999992
C      35.379089499999992     37.870549999999994     39.984185000000004
C      35.845889499999984     39.250749999999996     40.304544999999997
C      37.211689499999991     39.620649999999998     39.873884999999994
C      36.026289499999990     35.581850000000003     39.444175000000001
C      34.604289499999993     35.158749999999998     39.866464999999998
C      33.714989499999987     35.972949999999997     40.563195000000000
C      34.092789499999995     37.370350000000002     40.617204999999998
C      36.796989499999995     34.326949999999997     39.006595000000004
C      38.151889499999996     34.581050000000005     38.560265000000001
C      34.719989499999983     40.017949999999999     40.950475000000004
C      35.272289499999985     41.499949999999998     41.181394999999995
C      36.593289499999983     41.932549999999992     40.916094999999999
C      37.477689499999983     41.092749999999995     40.026054999999992
C      33.062389499999995     38.230450000000005     41.122235000000003
C      33.395489499999982     39.637050000000002     41.353194999999992
C      39.688589499999992     40.531849999999991     39.057944999999997
C      38.746689499999988     41.489049999999992     39.449034999999995
C      41.713989499999983     38.524349999999998     36.122234999999996
C      42.861889499999990     38.126949999999994     38.275235000000002
H      40.004589499999994     37.697149999999993     35.654060999999999
H      42.200389499999986     36.458449999999999     36.599184999999999
H      41.094489499999995     34.851550000000003     38.659454999999994
H      34.143889499999986     34.061750000000004     39.902474999999995
H      32.915989499999995     35.762550000000005     41.180075000000002
H      36.249289499999989     33.334750000000000     38.841954999999992
H      34.574289499999992     42.248249999999999     41.473995000000002
H      36.738189499999990     42.944249999999997     41.096164999999999
H      32.052089499999994     38.083950000000002     41.488294999999994
H      32.712589499999993     40.503150000000005     41.742165000000000
H      40.600989499999983     41.048149999999993     39.011984999999996
H      39.004489499999991     42.556349999999995     39.414085000000000
H      41.023989499999985     39.710049999999995     36.120944999999999
H      42.654589499999986     39.121849999999995     36.028255000000001
H      43.947910500000006     37.898250000000004     38.282884999999993
H      42.594889499999994     38.966250000000002     39.216084999999993
H      38.729289499999993     33.055750000000003     37.643104999999998
O      41.403389499999989     36.723450000000000     34.257835000000000
O      39.143389499999984     33.929850000000002     38.062355000000004
