15

C      36.799899999999994     37.972429999999974     38.907649999999997
C      36.877699999999997     39.340475999999995     39.337849999999996
C      38.168199999999999     39.879498999999996     39.035350000000001
C      38.982000000000006     39.467742999999999     37.925250000000005
C      38.597100000000005     38.247529999999998     37.413350000000008
C      37.547399999999996     37.471130000000002     37.921650000000000
C      37.548599999999993     36.316329999999994     36.831450000000004
H      36.426700000000004     36.426729999999992     36.066950000000006
H      36.274200000000000     39.555702999999994     40.063849999999995
H      38.467800000000004     40.597369999999998     39.773949999999999
H      39.954100000000004     39.972168999999994     37.804450000000003
H      39.375999999999998     38.029629999999997     36.677650000000000
H      37.882200000000005     35.402630000000002     37.311450000000008
H      36.045899999999996     37.202329999999975     39.129150000000003
H      38.438700000000004     36.354229999999987     35.936150000000005
