30

C      37.998899999999992     37.559749999999994     38.029779999999995
C      37.069599999999994     36.665250000000000     37.610880000000009
C      40.275199999999998     36.260549999999995     33.982280000000003
C      39.269899999999993     38.062649999999991     37.257280000000009
C      37.337599999999995     36.040049999999994     36.229079999999996
C      40.686700000000002     36.879949999999994     35.201779999999999
C      38.975600000000000     35.756349999999998     34.255380000000002
C      39.695999999999998     37.159849999999992     36.115980000000008
C      38.481200000000001     36.419550000000001     35.522580000000005
C      37.526100000000000     38.304249999999996     39.253680000000003
C      36.397899999999993     37.899749999999997     40.238980000000005
C      35.699799999999996     36.618549999999999     39.870480000000001
C      36.066999999999993     36.313950000000006     38.557079999999999
C      38.188999999999993     39.625649999999993     39.477580000000003
C      37.822000000000003     40.217649999999992     40.760880000000000
C      37.113100000000003     39.663249999999991     41.875480000000010
C      36.421499999999995     38.427949999999996     41.561680000000010
C      39.053500000000000     40.199849999999998     38.482680000000002
C      39.795199999999994     39.447549999999993     37.490280000000006
C      34.943100000000001     35.664249999999996     39.031979999999997
H      41.185900000000004     35.839449999999999     33.300320000000006
H      36.948300000000003     35.142550000000000     36.579180000000008
H      41.611199999999997     37.413250000000005     35.291080000000008
H      38.543700000000001     35.205349999999996     33.384560000000008
H      38.503000000000000     41.269750000000002     40.847780000000000
H      36.962999999999994     40.223349999999996     42.699679999999994
H      36.038299999999992     37.856449999999995     42.377880000000005
H      39.245999999999995     41.207749999999990     38.643079999999998
H      40.721999999999994     39.876249999999999     36.977880000000006
H      34.388800000000003     34.730249999999998     38.483380000000004
