5

C      38.063049999999990     37.888749999999995     37.782399999999996
H      37.099449999999997     37.289850000000001     37.914200000000008
H      37.799149999999997     38.710149999999999     37.316500000000005
H      38.900550000000003     37.328050000000005     37.449700000000007
H      38.657450000000004     37.958849999999991     38.683499999999995
