5

C      37.894149999999996     37.998149999999995     38.005529999999993
H      37.478649999999995     39.069249999999997     38.149208999999999
H      38.205149999999996     38.164950000000005     36.928540000000012
H      37.961649999999992     36.930750000000003     38.023468999999992
H      38.521350000000005     38.462049999999991     39.071459999999988
