6

C      38.657699999999998     38.772049999999993     38.670800000000000
H      38.352000000000004     36.733150000000002     37.915300000000002
H      37.233900000000006     36.929449999999989     36.391400000000004
O      38.855400000000003     39.520550000000000     39.608599999999996
O      38.305599999999991     38.165550000000003     37.681500000000000
O      37.144599999999997     36.479450000000000     37.292900000000003
