65

C      38.516599999999997     36.227300000000000     39.232899999999994
C      37.531100000000002     35.773500000000006     38.330499999999994
C      39.169900000000005     40.848600000000005     37.268500000000003
C      38.650199999999998     38.449800000000003     36.920200000000001
C      39.265600000000006     37.427300000000010     39.276799999999994
C      36.247400000000006     35.534100000000002     36.271599999999999
C      39.614999999999995     39.979200000000006     38.564800000000005
C      38.028100000000002     37.452400000000004     36.285499999999999
C      39.180500000000002     38.650399999999998     38.284000000000006
C      37.350900000000003     36.266200000000005     36.937600000000003
C      38.802599999999998     35.302300000000010     40.435000000000002
C      37.920700000000004     34.133400000000002     40.675500000000000
C      36.693300000000001     33.918100000000003     39.937100000000001
C      36.693800000000003     34.654299999999999     38.632999999999996
C      38.586200000000005     42.876899999999999     38.562499999999993
C      38.809999999999995     44.210800000000006     38.682200000000002
C      38.444600000000001     42.111800000000009     37.275499999999994
C      38.855500000000006     39.739200000000004     36.192800000000005
C      39.949800000000003     37.969400000000007     40.678299999999993
C      41.018600000000006     36.805800000000005     40.919100000000000
C      40.073399999999999     35.612400000000001     41.165299999999995
C      35.987800000000000     34.281000000000006     35.706400000000002
C      35.832900000000002     34.434400000000004     37.343400000000003
C      35.666800000000002     32.938000000000009     40.113600000000005
C      40.726499999999994     40.783600000000007     38.069299999999998
C      39.132399999999997     40.516400000000004     39.991799999999998
C      38.372100000000003     41.897300000000008     39.837400000000002
C      35.023400000000002     36.528500000000001     36.074399999999997
C      34.965000000000003     36.912900000000008     34.425899999999999
C      40.926900000000003     34.335200000000007     41.128599999999999
C      38.864900000000006     39.591099999999997     34.759399999999999
C      34.962900000000005     32.954500000000003     41.473200000000006
C      35.959000000000003     31.617500000000003     40.621799999999993
H      37.744400000000006     37.276200000000010     35.249000000000002
H      37.923200000000001     33.689400000000006     41.843899999999998
H      37.527000000000001     42.140500000000003     36.673400000000001
H      39.283200000000001     37.828800000000008     41.555700000000002
H      40.482999999999997     38.819299999999998     40.292699999999996
H      41.802699999999994     36.876500000000007     41.643599999999992
H      41.829799999999999     36.472200000000008     40.312699999999992
H      39.892900000000004     35.759099999999997     42.260500000000000
H      36.811699999999995     33.651200000000010     35.478400000000001
H      34.890300000000003     33.579100000000004     37.506700000000002
H      35.037600000000005     34.445700000000009     35.208799999999997
H      34.903000000000006     32.836700000000008     39.204000000000001
H      41.634399999999999     40.132399999999997     37.692399999999999
H      41.312400000000004     41.752100000000006     38.489900000000006
H      38.119100000000003     39.975100000000005     40.127899999999990
H      39.790400000000005     40.393100000000004     40.813200000000002
H      38.650800000000004     42.399500000000003     40.826499999999996
H      37.296000000000006     41.871499999999997     39.466999999999999
H      34.170200000000001     36.377600000000008     36.728700000000003
H      35.398400000000002     37.638500000000008     36.037800000000004
H      35.814399999999999     37.269599999999997     33.638700000000000
H      34.310400000000001     36.156000000000006     33.749899999999997
H      34.290600000000005     37.829799999999999     34.132199999999997
H      40.473599999999998     33.442200000000000     40.922899999999998
H      41.649800000000006     34.246200000000002     41.990499999999997
H      41.486300000000000     34.381000000000007     40.243000000000002
H      39.277399999999993     40.345500000000008     34.189399999999999
H      38.257500000000000     38.879199999999997     34.359999999999999
H      35.207600000000006     30.812500000000004     40.470200000000006
H      36.679000000000002     31.368400000000005     41.512799999999991
O      39.314400000000006     45.187500000000000     38.525300000000001
O      34.273800000000001     33.179900000000004     42.361300000000000
