86

C      38.427650000000000     38.466049999999996     41.556669999999990
C      39.512850000000000     37.799250000000008     40.689369999999997
C      38.974350000000001     34.237049999999996     44.509050000000002
C      40.002350000000007     33.924450000000000     43.514649999999989
C      38.299650000000000     37.879449999999999     42.806499999999993
C      40.187150000000003     36.512850000000007     40.797489999999989
C      38.403950000000009     35.687649999999998     44.092649999999992
C      40.143749999999997     34.601149999999997     42.203550000000000
C      39.023350000000008     36.632749999999994     43.204139999999995
C      39.787350000000004     35.900050000000000     42.100759999999994
C      38.087649999999996     39.889350000000000     41.233969999999999
C      38.704149999999998     40.660550000000001     40.167659999999998
C      39.153250000000000     39.716849999999994     39.262670000000000
C      39.739750000000001     38.525550000000003     39.412749999999996
C      38.833349999999996     33.170450000000002     45.447949999999992
C      39.391249999999999     31.950749999999999     45.529149999999994
C      40.148350000000008     31.565550000000002     44.392049999999998
C      40.403750000000002     32.435550000000006     43.409439999999996
C      37.011849999999995     40.397049999999993     42.210059999999991
C      36.554550000000006     41.773249999999997     42.389799999999994
C      37.494650000000007     42.670050000000003     41.787259999999996
C      38.294350000000009     42.452450000000006     40.595789999999994
C      36.489550000000008     39.806050000000006     43.522849999999991
C      36.916650000000004     38.467350000000003     43.611849999999997
C      36.467349999999996     37.522650000000006     44.631050000000002
C      36.683850000000007     36.079450000000001     44.502150000000000
C      39.445850000000007     36.757550000000002     44.617849999999990
C      35.590450000000004     38.184950000000008     45.763949999999987
C      40.076850000000007     37.935150000000000     37.022849999999998
C      39.970150000000004     39.463150000000006     33.552411999999997
C      39.608649999999997     38.543650000000000     34.592829999999992
C      39.176349999999999     40.758049999999997     33.482448300000001
C      37.728850000000008     40.649350000000005     33.837150999999992
C      37.308850000000007     39.421650000000000     34.537759999999999
C      38.200450000000004     38.368350000000000     34.861019999999996
C      40.452849999999998     38.098950000000002     33.509822099999994
C      36.500050000000002     41.471350000000008     33.512533599999998
C      35.341750000000005     40.683349999999997     33.990437000000000
C      35.934650000000005     39.435449999999996     34.922919999999998
C      35.185350000000000     40.865349999999999     35.700350000000000
C      39.233050000000006     42.240349999999999     33.271349999999984
C      38.359850000000009     43.196350000000002     32.709049999999984
C      37.884550000000004     43.164750000000005     31.391449999999988
C      38.166049999999998     41.835449999999994     30.385649999999998
C      36.890749999999997     42.792950000000005     32.700250000000011
C      39.298749999999998     40.816949999999999     30.109649999999981
C      38.548650000000009     44.679050000000004     33.178049999999985
C      40.576850000000007     42.919349999999994     33.687576999999990
H      40.863650000000007     36.065450000000006     39.936479999999996
H      40.261350000000007     33.658450000000002     41.403079999999996
H      39.425150000000002     40.128950000000003     38.188389999999998
H      38.044150000000002     33.441650000000003     46.209949999999992
H      39.170050000000003     31.186150000000001     46.308650000000000
H      40.685050000000004     30.537849999999999     44.398249999999990
H      40.961650000000006     32.152749999999997     42.481960000000001
H      35.717449999999999     41.588750000000005     43.154399999999988
H      37.436750000000004     43.697750000000006     42.097329999999999
H      35.750349999999997     40.273750000000000     44.208349999999996
H      35.952150000000003     35.586950000000002     43.872449999999994
H      36.387550000000005     35.690049999999999     45.527949999999997
H      38.952849999999998     37.425350000000002     45.395550000000000
H      40.231449999999995     36.087850000000003     44.928349999999995
H      36.020949999999999     38.401650000000004     46.773249999999990
H      35.176050000000004     39.267150000000001     45.731649999999995
H      34.845950000000002     37.331050000000005     45.846350000000001
H      37.957149999999999     37.481550000000006     35.485050000000001
H      40.554349999999999     37.355349999999994     32.725950000000012
H      34.441649999999996     40.873150000000003     33.318150000000003
H      35.391649999999998     38.614550000000001     34.886789999999998
H      38.036550000000005     44.209750000000000     30.926749999999991
H      37.516450000000006     42.150850000000005     29.598549999999989
H      37.260850000000005     41.470649999999992     31.007550000000013
H      36.223450000000000     43.538950000000000     32.632949999999994
H      40.312349999999995     41.550650000000005     29.842849999999991
H      39.159750000000003     39.979150000000004     29.226750000000010
H      39.569149999999993     40.066549999999999     30.966849999999987
H      38.128650000000007     45.462150000000001     32.454450000000008
H      38.340850000000003     44.984849999999994     34.308156999999994
H      39.676850000000002     45.095150000000004     33.344449999999988
H      40.429050000000004     43.893949999999997     34.097194000000002
H      40.907250000000005     42.309550000000002     34.516639999999995
H      41.558350000000004     43.025450000000006     32.862149999999986
O      38.819150000000008     42.355050000000006     39.529150000000001
O      39.822550000000007     37.552750000000003     38.172709999999995
O      40.397149999999996     38.563449999999996     36.033850000000001
O      35.078050000000005     41.423850000000002     36.669280000000001
