5

C      38.187199999999990     38.044649999999990     38.165099999999995
H      38.831899999999990     37.394149999999996     37.573699999999988
H      38.842500000000001     38.605850000000004     38.878699999999995
H      37.157499999999999     37.706750000000000     38.688400000000001
H      37.992999999999995     38.340550000000007     37.121300000000005
