5

C      38.261499999999991     37.686499999999995     37.950999999999993
H      38.838099999999997     37.299600000000012     37.038400000000003
H      38.579700000000003     38.733099999999993     38.282900000000005
H      38.543299999999995     37.266900000000007     38.961599999999997
H      37.161900000000003     37.894100000000009     37.630900000000004
