41

C      37.481049999999996     39.445499999999996     40.271634999999996
C      37.236249999999998     40.903800000000004     39.886035000000007
C      37.807950000000005     38.407400000000003     35.407435000000007
C      37.610349999999997     38.510400000000004     39.230334999999997
C      36.970149999999990     41.263499999999993     38.526735000000002
C      37.641750000000002     40.586400000000005     36.179935000000000
C      37.416749999999993     37.915700000000001     36.536935000000000
C      37.579049999999995     40.156200000000005     37.526934999999995
C      37.670050000000003     38.788600000000002     37.824835000000007
C      37.730849999999990     39.066299999999998     41.633627000000004
C      38.162750000000003     40.199399999999997     42.347324999999998
C      37.813749999999999     41.692800000000005     42.049075000000009
C      37.334350000000001     42.160800000000002     40.792867400000006
C      37.308149999999998     37.106400000000001     39.845034999999996
C      38.024450000000002     36.795500000000004     41.127609000000007
C      36.502449999999996     36.146099999999997     39.206734999999995
C      38.144549999999995     35.132800000000003     41.449832000000015
C      38.697649999999996     33.832100000000004     40.498635000000007
C      39.381349999999998     36.009700000000002     40.929847000000017
C      37.711449999999999     40.097700000000003     33.599535000000003
H      37.867949999999993     37.549100000000003     34.412135000000006
H      36.525749999999988     42.117799999999995     38.166735000000003
H      37.345950000000002     41.614600000000003     35.876135000000005
H      37.334949999999992     36.678200000000004     36.914834999999997
H      38.766749999999988     39.839500000000001     43.142065000000009
H      38.462149999999994     42.350600000000000     42.518305000000005
H      37.263949999999994     43.271000000000001     40.457034999999998
H      35.754750000000001     36.201999999999998     38.049734999999998
H      36.065049999999999     35.280000000000001     39.558835000000002
H      39.478149999999999     33.222000000000001     40.965512000000011
H      38.595849999999999     34.219700000000003     39.490335000000002
H      38.513249999999999     34.534000000000006     42.341504999999998
H      38.028750000000002     32.728999999999999     40.447734999999994
H      40.245249999999999     35.888200000000005     41.692526000000001
H      39.672550000000001     35.689300000000003     39.776435000000006
H      37.791249999999991     37.158600000000000     43.041235000000007
H      38.512149999999991     39.988900000000001     32.857934999999991
H      37.634149999999991     41.409700000000001     33.624735000000001
H      36.678849999999997     39.812900000000006     33.288735000000003
N      38.004949999999994     39.779200000000003     35.088735000000000
N      37.610550000000003     37.622599999999998     42.133155000000016
