59

C      36.592349999999996     37.491804999999992     37.871350000000000
C      37.879949999999994     36.725104999999999     37.481850000000009
C      41.217449999999999     39.930245000000006     43.226550000000003
C      40.439349999999990     38.703005000000005     43.103550000000006
C      35.861549999999994     37.283005000000003     39.117650000000005
C      39.008550000000000     36.120305000000002     38.305950000000003
C      38.944850000000002     38.634704999999990     43.183450000000008
C      38.508749999999992     36.886204999999997     42.713149999999999
C      39.056349999999995     36.727904999999986     41.247149999999998
C      39.093850000000003     36.114305000000002     39.822450000000003
C      37.511949999999999     38.204404999999994     42.737550000000006
C      37.956850000000003     39.415595000000010     43.405850000000008
C      35.830449999999999     38.380205000000004     36.987750000000005
C      36.415849999999992     38.758697299999994     35.646949999999997
C      37.497950000000003     38.024704999999990     35.244450000000001
C      38.120949999999993     37.074604999999991     36.094650000000001
C      34.737949999999998     37.922704999999993     39.609650000000002
C      34.414249999999996     39.275470999999996     38.858749999999993
C      34.492249999999999     39.160909000000004     37.422550000000001
C      40.092549999999989     35.400705000000002     37.773250000000004
C      37.921949999999995     36.420905000000005     40.519650000000006
C      39.296650000000000     36.373805000000004     35.588649999999994
C      41.404649999999990     37.555605000000000     42.992650000000005
C      40.124549999999999     35.543504999999996     36.402950000000004
C      36.577749999999995     36.143304999999998     40.061950000000003
C      35.596049999999991     40.145685000000000     39.509950000000003
C      39.164549999999991     35.840004999999991     31.428550000000001
C      38.509149999999991     36.036405000000002     32.944950000000006
C      39.361249999999998     36.332504999999998     34.019950000000009
H      35.474549999999994     37.560104999999993     44.030850000000008
H      38.027849999999987     39.905705000000005     45.354050000000001
H      36.526249999999990     35.467505000000003     39.219649999999994
H      36.834049999999991     41.167895000000009     44.661850000000008
H      42.286749999999998     39.797274999999999     43.422050000000006
H      38.732450000000000     36.013504999999995     43.298049999999996
H      35.875649999999993     39.331445000000002     35.026750000000007
H      37.692349999999990     38.309804999999997     34.181550000000001
H      34.782449999999997     37.716604999999994     40.718950000000007
H      33.713250000000002     40.181925000000007     39.031750000000002
H      34.269749999999988     39.896425000000008     36.581450000000004
H      33.756850000000000     38.379705000000001     37.364550000000008
H      40.869149999999991     34.939104999999998     38.462150000000001
H      40.954849999999993     35.092804999999998     35.767350000000008
H      38.205249999999992     34.952905000000001     33.047650000000004
H      35.841949999999997     35.950204999999997     40.896750000000004
H      35.947649999999996     40.786774999999999     38.663550000000001
H      35.237150000000000     40.724714999999996     40.353050000000010
H      36.195849999999993     39.373947000000008     40.065249999999999
H      38.780149999999992     34.832104999999991     31.143149999999999
H      40.058449999999993     35.575704999999999     31.760950000000001
H      39.172249999999991     36.668705000000003     30.645949999999999
H      37.585949999999997     36.381704999999997     32.687650000000005
H      39.938849999999988     35.496105000000000     33.837650000000011
H      39.744349999999997     37.151105000000001     33.538050000000005
H      35.045850000000002     39.071849000000007     43.268950000000004
H      40.510849999999991     40.735755000000012     42.967450000000007
N      35.642650000000003     38.143504999999998     42.927650000000000
N      37.432549999999992     40.369515000000014     44.559450000000005
O      41.883349999999993     36.641305000000003     42.757250000000006
