49

C      39.013976999999997     37.941199999999995     38.419659999999993
C      38.839627000000007     37.355700000000006     36.962310000000002
C      35.667877000000004     37.068900000000006     38.382740000000013
C      35.095907000000011     36.249699999999997     37.318640000000002
C      37.958117000000001     37.955699999999993     39.462890000000002
C      38.117307000000011     38.041199999999996     35.485830000000007
C      39.216447000000002     40.267800000000001     37.133120000000005
C      36.919987000000006     37.032100000000000     39.384800000000013
C      36.361547000000002     36.980499999999992     37.023450000000011
C      39.851297000000002     39.106099999999991     38.251390000000001
C      40.606957000000008     39.355599999999995     37.087500000000006
C      40.693437000000003     38.761900000000004     35.603810000000010
C      39.600866999999994     37.806500000000000     35.686410000000009
C      38.624507000000008     38.199400000000004     40.842810000000000
C      40.296426999999994     38.473299999999995     40.840610000000012
C      40.017807000000005     39.728900000000003     39.666710000000009
C      37.584157000000005     36.786999999999999     36.251650000000012
C      37.724757000000011     35.552199999999999     35.254440000000002
C      40.840976999999995     37.093600000000002     35.188990000000004
C      35.663717000000005     36.332000000000001     39.684800000000010
C      35.738236999999998     34.789499999999997     40.011640000000000
C      35.031277000000003     33.978999999999999     38.730940000000004
C      35.168777000000006     34.767000000000003     37.398230000000012
C      37.895567000000000     42.095799999999997     37.634030000000010
H      41.427587000000003     39.965400000000002     37.386090000000010
H      40.640436999999991     39.422899999999991     34.858300000000000
H      37.737877000000012     38.945899999999995     41.356809999999996
H      38.293076999999997     37.894900000000000     41.894610000000000
H      41.008287000000010     37.655099999999997     40.627910000000000
H      40.690677000000008     38.778700000000001     41.729110000000006
H      38.968867000000003     40.205099999999995     40.015650000000008
H      40.837566999999993     40.500100000000003     39.657000000000011
H      37.470787000000001     38.821099999999994     34.891469999999998
H      37.302507000000006     35.797000000000004     34.319670000000002
H      36.827147000000011     34.592999999999996     35.413970000000006
H      38.523187000000007     35.330500000000001     34.809699999999992
H      42.000716999999995     37.014000000000003     35.204909999999998
H      40.731056999999993     37.091100000000004     34.105390000000000
H      34.780337000000003     36.806199999999997     40.346910000000008
H      35.041617000000002     34.503500000000003     41.068110000000004
H      36.761786999999998     34.213500000000003     40.078920000000011
H      35.067886999999999     32.910199999999996     38.881370000000004
H      33.999283000000005     34.296500000000002     38.811320000000009
H      34.399587000000011     34.094900000000003     36.779330000000002
H      36.035447000000005     34.198000000000000     36.874340000000004
H      37.528507000000005     43.089800000000004     37.160970000000006
H      38.614937000000012     42.520900000000005     38.448680000000010
H      37.045987000000011     41.426099999999998     38.071780000000004
O      38.492647000000005     41.041499999999999     36.519270000000006
