5

C      38.105899999999991     37.798549999999992     38.005449999999996
H      37.073899999999995     37.553050000000013     38.298050000000003
H      38.926100000000005     38.903449999999992     37.859849999999994
H      38.542900000000003     37.518050000000002     38.933549999999997
H      38.369499999999988     37.096550000000008     37.066450000000003
