6

C      38.066249999999997     37.496299999999991     38.438749999999999
C      37.927750000000003     38.288499999999999     37.319550000000007
H      37.196649999999991     36.908300000000004     38.497650000000000
H      38.996849999999995     37.401299999999999     39.134250000000002
H      37.003150000000005     38.187899999999999     36.865749999999998
H      38.585749999999990     39.091699999999996     36.972950000000004
