20

C      37.406499999999994     39.506299999999996     38.125749999999996
C      36.451599999999999     36.368300000000005     37.697749999999999
C      36.932800000000000     36.648499999999999     36.328450000000004
C      37.678199999999990     37.833200000000005     36.091149999999999
C      37.924699999999987     38.224000000000004     38.641049999999993
C      38.165700000000001     38.792900000000003     37.155349999999999
C      37.053500000000000     37.020300000000006     38.776750000000007
C      39.710599999999999     39.024500000000003     37.038650000000004
C      38.746199999999988     38.633699999999990     39.758650000000003
H      40.061300000000003     39.286500000000004     35.934449999999998
H      37.655899999999988     40.405400000000000     38.520149999999987
H      35.893900000000002     35.594600000000000     37.776949999999999
H      36.309299999999993     35.989000000000004     35.849450000000004
H      38.102800000000002     38.163100000000000     35.165049999999994
H      36.842799999999997     36.653599999999997     39.795649999999995
H      40.106099999999998     39.876199999999997     37.391350000000003
H      40.100399999999993     38.075199999999995     37.261449999999996
H      39.670999999999992     38.562200000000004     39.187849999999997
H      38.453999999999994     38.043300000000002     40.834950000000006
H      38.434500000000000     39.720799999999997     40.372749999999996
