8

C      38.856169999999992     38.073099999999990     37.870749999999994
C      37.243890000000000     37.917299999999997     37.987050000000004
H      39.162689999999998     39.093499999999999     37.967150000000004
H      36.424889999999998     38.427700000000002     37.315750000000001
H      38.574289999999998     38.375900000000001     36.861650000000004
H      39.575110000000002     37.309899999999999     37.745950000000008
H      36.856289999999994     36.906500000000001     37.571450000000006
H      36.831689999999995     38.266199999999998     39.138349999999996
