48

C      34.506184999999981     37.234999999999999     33.823749999999990
C      33.442584999999994     37.559100000000001     34.775649999999999
C      42.757755000000003     36.496999999999986     41.462250000000004
C      43.094004999999996     36.781300000000002     40.101649999999992
C      35.775584999999985     36.620900000000006     34.317249999999994
C      33.739584999999991     38.032200000000003     36.104750000000003
C      41.624405000000003     37.077299999999994     42.141050000000000
C      42.284665000000004     37.480199999999996     39.144849999999998
C      37.002784999999982     35.860600000000005     36.201149999999991
C      35.691684999999993     38.278999999999996     37.658949999999990
C      39.471205000000005     38.711499999999987     41.067950000000003
C      37.286484999999992     39.168300000000002     39.357849999999985
C      39.769224999999992     38.117999999999995     37.560549999999992
C      36.160784999999990     36.905799999999999     35.689649999999986
C      35.123384999999992     37.649500000000003     36.520449999999997
C      40.811745000000002     37.978700000000003     41.168450000000000
C      38.313858000000003     38.133200000000002     37.223450000000000
C      37.653824000000000     37.175200000000004     36.348549999999996
C      38.583694999999999     38.769599999999997     39.859450000000002
C      40.914785000000002     37.914800000000000     39.724250000000005
C      39.749065000000002     38.349000000000004     38.944749999999985
C      42.444115000000004     37.464399999999998     37.691949999999999
C      41.217374999999997     37.793099999999995     36.872349999999990
C      37.087184999999991     38.653800000000004     37.923049999999989
C      43.418795000000003     38.594300000000004     37.387749999999990
C      43.371785000000003     39.770499999999998     38.301649999999995
C      32.492084999999989     38.221000000000004     37.053349999999995
H      34.143084999999999     37.343699999999998     32.826749999999997
H      32.489384999999999     37.695999999999998     34.487049999999989
H      43.565745000000000     36.126300000000001     42.025749999999995
H      44.267115000000004     36.693399999999997     39.922049999999984
H      36.384284999999991     35.862499999999997     33.812849999999997
H      41.519405000000006     36.560100000000006     43.173250000000003
H      37.734330000000000     35.226299999999995     36.776549999999986
H      34.862284999999993     38.661199999999994     38.320850000000000
H      38.889275000000012     39.079799999999992     41.917049999999996
H      43.016244999999998     36.574299999999994     37.448850000000000
H      41.069834999999998     36.858199999999997     36.263849999999998
H      41.367714999999997     38.640799999999999     36.197049999999997
H      36.860185000000001     40.046099999999996     39.828650000000003
H      44.182774999999999     37.740599999999986     37.325349999999993
H      42.724645000000010     39.151700000000005     36.371850000000002
H      43.328365000000005     40.773700000000005     37.836049999999993
H      44.060184999999997     39.666700000000006     39.141050000000000
H      42.091944999999996     39.807899999999989     38.550850000000004
H      31.732884999999996     37.792599999999993     36.427849999999992
H      32.862084999999993     37.857799999999997     38.102849999999997
H      32.474184999999991     39.339499999999987     36.966149999999992
