8

C      37.812500000000000     37.416509999999995     38.374899999999997
C      38.243800000000000     38.696100000000001     37.341800000000006
H      37.883699999999997     37.476370000000003     39.484800000000000
H      36.805799999999998     37.593090000000004     38.142500000000005
H      38.909599999999998     38.288930000000001     36.515200000000000
H      37.769300000000008     36.461160000000000     37.696800000000003
H      39.194200000000002     39.175820000000002     37.872600000000006
H      37.615600000000008     39.538840000000000     37.143799999999999
