6

C      38.048149999999993     37.383149999999993     38.547079999999994
C      38.050449999999998     37.887850000000000     37.147350000000003
H      37.100650000000002     37.591750000000005     36.381950000000003
H      38.899349999999998     37.657049999999991     36.597310000000007
H      37.766750000000002     38.961349999999996     37.461630000000000
O      38.283450000000002     37.038650000000004     39.618049999999997
