9

C      38.067549999999997     38.462599999999995     37.450599999999994
C      38.350049999999996     38.397999999999996     38.951600000000013
C      37.461249999999993     37.259299999999996     36.807900000000004
H      39.089349999999996     38.578000000000003     37.107200000000006
H      37.385649999999998     39.189099999999996     37.291300000000007
H      36.930449999999993     36.810900000000004     37.618699999999990
H      38.522849999999991     36.822899999999990     36.444800000000001
H      36.910650000000004     37.248099999999994     35.944100000000006
O      38.591749999999990     38.329099999999997     40.055899999999994
