6

C      38.724699999999999     37.897449999999992     38.371599999999987
C      37.392500000000005     38.169150000000009     37.861099999999993
H      39.418900000000001     38.834150000000001     38.311800000000005
H      38.619500000000002     37.165849999999999     39.090100000000007
H      36.581099999999999     37.606250000000010     38.013299999999987
H      37.321099999999994     38.766050000000000     36.909899999999993
