5

C      38.279399999999995     38.199699999999993     37.920149999999992
H      37.181700000000006     38.436299999999996     38.153149999999997
H      38.818299999999994     38.447700000000005     36.925550000000001
H      38.585200000000000     38.744199999999999     39.074449999999999
H      38.732799999999997     37.255800000000001     38.381849999999993
