122

C      40.273029999999999     35.448824999999992     40.476399999999998
C      40.260330000000003     36.471824999999995     39.246300000000005
C      38.517930000000007     30.547525000000000     42.686299999999996
C      37.242210000000000     29.864725000000000     42.529900000000005
C      36.733800000000002     29.309424999999994     40.145500000000006
C      39.842630000000000     34.136724999999998     40.941800000000008
C      39.357730000000004     35.746224999999995     38.319700000000005
C      39.161630000000002     31.684624999999997     41.974700000000006
C      36.814670000000007     31.606625000000001     39.035699999999999
C      36.560660000000006     30.153124999999996     41.250900000000001
C      39.045630000000003     33.226325000000003     40.084300000000006
C      37.995930000000001     33.740524999999991     39.031700000000001
C      38.510230000000007     31.991424999999992     40.688199999999995
C      36.906390000000002     32.966124999999991     38.588100000000004
C      37.182560000000002     30.990424999999995     40.478600000000007
C      40.308130000000006     33.946424999999991     42.385700000000007
C      40.054529999999993     32.593424999999996     42.671800000000005
C      38.574030000000008     34.605824999999996     38.119699999999995
C      36.147310000000004     32.015825000000000     37.897900000000007
C      41.451830000000001     36.087625000000003     41.110799999999998
C      42.145930000000007     37.311324999999997     40.542299999999997
C      41.414730000000006     37.463724999999997     39.392600000000002
C      38.168230000000001     35.630124999999992     37.314700000000002
C      41.826030000000003     35.588124999999991     42.473700000000001
C      41.180530000000005     34.694225000000003     43.306999999999995
C      37.695190000000004     37.601124999999996     35.649099999999997
C      36.785710000000002     28.642024999999997     43.394900000000007
C      38.705530000000003     47.283385000000003     31.746000000000002
C      35.222130000000007     36.938924999999998     37.126300000000008
C      35.777540000000002     42.866824999999992     36.027800000000006
C      36.961600000000004     38.438324999999985     40.787600000000005
C      35.221000000000004     38.997924999999995     36.073000000000008
C      35.191750000000006     38.304625000000001     37.358400000000003
C      35.658330000000007     41.451224999999987     35.434500000000007
C      36.453130000000002     39.288624999999989     39.734300000000005
C      35.715690000000002     43.205524999999987     37.371000000000002
C      37.109049999999996     37.104924999999987     41.655099999999997
C      35.553140000000006     40.447724999999991     36.558900000000001
C      35.740010000000005     39.332324999999990     38.393700000000003
C      35.952840000000002     42.237224999999995     38.448300000000003
C      35.766750000000002     40.757625000000004     37.835800000000006
C      35.735710000000005     36.081524999999992     36.006900000000002
C      35.341120000000004     36.020524999999985     34.419700000000006
C      35.037659999999995     37.331024999999997     33.812100000000001
C      35.009110000000007     38.563424999999988     34.630400000000002
C      34.947080000000000     39.738824999999984     33.697500000000005
C      35.595470000000006     41.131625000000000     33.997900000000001
C      36.072070000000004     43.871524999999984     34.899700000000003
C      35.915540000000007     45.269620000000010     35.304100000000005
C      36.621100000000006     44.453624999999995     37.512800000000006
C      36.952069999999999     43.209424999999989     38.177999999999997
C      35.402760000000001     43.483324999999994     33.608800000000002
C      35.822730000000007     42.005825000000002     32.918300000000002
C      36.103200000000001     36.046924999999995     41.362200000000001
C      37.406060000000004     39.861124999999994     40.674600000000005
C      40.128530000000005     42.924424999999999     40.831700000000005
C      39.469029999999997     41.682524999999998     40.743700000000004
C      38.377430000000004     40.905424999999994     41.144600000000004
C      33.845979999999997     37.598224999999999     37.796800000000005
C      35.046910000000004     35.011224999999996     35.612000000000002
C      34.822829999999996     37.846824999999995     32.458800000000004
C      34.737530000000007     39.245324999999994     32.315600000000003
C      35.728240000000007     46.173925000000004     34.260900000000007
C      34.327880000000007     45.834725000000006     33.310600000000001
C      34.357070000000007     44.328625000000002     33.060800000000008
C      37.624360000000003     35.975324999999991     36.008700000000005
C      38.165030000000002     35.273524999999992     34.592200000000005
C      37.328780000000002     34.348624999999998     33.690700000000007
C      36.173520000000003     35.065124999999995     33.157500000000006
C      39.762530000000005     40.286225000000002     41.402000000000001
C      38.810930000000006     43.512725000000003     40.841900000000003
C      37.101449999999993     46.517004999999997     33.453300000000006
C      37.200879999999998     48.072345000000006     33.194900000000004
C      36.236740000000005     45.567394999999998     36.557500000000005
H      38.662429999999993     30.350724999999997     43.908600000000007
H      37.634040000000006     28.872624999999996     39.840800000000002
H      40.483429999999998     32.592324999999995     43.684000000000005
H      42.685730000000007     38.131225000000001     40.953400000000002
H      41.565030000000007     38.302125000000004     38.760700000000007
H      42.715930000000000     36.244424999999993     42.787900000000008
H      41.609030000000004     34.433224999999993     44.366399999999999
H      37.213900000000002     38.106924999999997     36.600300000000004
H      37.145829999999997     38.087125000000000     34.737600000000008
H      37.204020000000000     27.402224999999994     43.298100000000005
H      35.689510000000006     28.723424999999995     43.406000000000006
H      37.037820000000004     28.941924999999994     44.501799999999996
H      34.453970000000005     28.836324999999992     39.594500000000004
H      37.253880000000002     37.369725000000003     42.633699999999997
H      37.891430000000000     42.946825000000004     38.459500000000006
H      41.114730000000002     43.179424999999995     40.394999999999996
H      34.379980000000003     31.330725000000001     36.891300000000001
H      33.284070000000000     36.988024999999993     37.332799999999999
H      35.506000000000000     34.021524999999997     35.413200000000003
H      33.861999999999995     34.886025000000004     35.971700000000006
H      34.717990000000000     37.220424999999992     31.498200000000004
H      34.679760000000002     39.955424999999991     31.620600000000003
H      35.403099999999995     47.263355000000004     34.468100000000007
H      33.410579999999996     46.236405000000012     33.960500000000003
H      33.635639999999995     44.330325000000002     32.161100000000005
H      34.341500000000003     46.632945000000014     32.364400000000003
H      33.761749999999999     37.414124999999999     38.840999999999994
H      38.792830000000002     37.846324999999993     35.658900000000003
H      38.223130000000005     36.382925000000000     34.251600000000003
H      39.079229999999995     34.909424999999999     34.716600000000007
H      37.956730000000000     34.131124999999997     32.767200000000003
H      36.953600000000002     33.277424999999994     34.005800000000001
H      36.873460000000001     35.619424999999993     32.365600000000008
H      35.980310000000003     34.194524999999999     32.650900000000007
H      37.785840000000007     45.940165000000000     33.819400000000002
H      37.033960000000008     46.110015000000004     32.418400000000005
H      37.385560000000005     48.463465000000006     34.044100000000007
H      36.234230000000004     48.597775000000006     33.007100000000001
H      36.052670000000006     46.604165000000002     37.031500000000001
H      35.387140000000002     29.866225000000000     38.312500000000007
N      35.468670000000003     28.940525000000001     39.198600000000006
O      35.202710000000003     31.945024999999994     36.835200000000007
O      39.292230000000004     46.234555000000000     31.819200000000002
O      38.248830000000005     48.388735000000004     32.043700000000001
O      40.479930000000003     39.778424999999999     42.253500000000003
O      38.087430000000005     44.422425000000004     40.790600000000005
O      35.618339999999996     35.095224999999999     41.003800000000005
O      36.289139999999996     41.570124999999997     31.849600000000002
