6

C      36.967249999999993     37.839749999999995     37.403499999999994
C      38.972450000000002     38.582349999999991     37.776799999999994
C      37.683450000000001     38.905349999999999     37.883600000000001
H      39.362549999999999     37.548749999999998     37.387299999999996
H      39.856450000000002     38.790250000000000     38.612700000000004
O      36.143549999999998     37.094650000000001     37.601799999999997
