278

C      25.712700000000005     31.510999999999996     46.557149999999993
C      25.891000000000012     32.337899999999991     45.492450000000005
C      27.176200000000001     32.319200000000002     44.465450000000004
C      28.230400000000003     31.221499999999999     44.827750000000009
C      28.004800000000010     30.579299999999996     46.099950000000007
C      25.373600000000003     32.920699999999997     46.452649999999991
C      27.296000000000006     30.777200000000001     43.760950000000008
C      32.664000000000009     39.201050000000009     35.809449999999998
C      33.162200000000006     37.993270000000003     34.970250000000000
C      30.638700000000007     41.497460000000011     34.225149999999999
C      31.319500000000012     39.731570000000019     36.295749999999998
C      32.074300000000001     37.216060000000013     34.311750000000004
C      30.472000000000001     40.712690000000002     35.502049999999997
C      29.932100000000013     39.070770000000010     33.744349999999997
C      29.747300000000003     37.950640000000014     32.935050000000004
C      30.920400000000015     37.920770000000005     33.785049999999998
C      33.695400000000006     40.032060000000008     36.422049999999999
C      35.043100000000010     39.388560000000005     36.211150000000004
C      34.789900000000003     38.113120000000009     35.622850000000000
C      34.179300000000012     37.723960000000005     34.188449999999996
C      35.000800000000012     42.013480000000008     36.986049999999999
C      36.282500000000013     41.131950000000018     34.709449999999997
C      36.191100000000006     41.635610000000014     36.213450000000002
C      36.391100000000009     40.219540000000009     36.118350000000007
C      33.692400000000006     41.321080000000009     37.236649999999997
C      31.266500000000008     41.070790000000009     36.718350000000001
C      32.476900000000015     42.187930000000001     36.570050000000009
C      29.554800000000007     40.347470000000015     34.371949999999998
C      31.202400000000004     41.039260000000013     32.625149999999998
C      30.442700000000009     41.392620000000008     38.039949999999997
C      37.432600000000001     42.623210000000007     36.233249999999998
C      52.555899999999994     45.522040000000011     34.266950000000008
C      36.631200000000007     42.281290000000006     40.161450000000002
C      35.187900000000006     41.906700000000008     39.675049999999999
C      36.175700000000006     40.967090000000013     40.104549999999996
C      35.636900000000004     43.314020000000006     39.522050000000000
C      34.434600000000003     41.965930000000014     38.389550000000000
C      28.849300000000014     37.250823000000011     31.877549999999999
C      25.325000000000010     30.148600000000009     34.299950000000010
C      29.798600000000000     32.533400000000007     33.999949999999998
C      26.358400000000010     30.978600000000007     33.606749999999998
C      28.439700000000016     32.350200000000008     33.527650000000008
C      25.310700000000011     29.821100000000008     35.670850000000002
C      29.957200000000014     32.117800000000003     35.386150000000001
C      26.534500000000008     30.576799999999999     37.855649999999997
C      27.767800000000008     31.241400000000006     38.350650000000002
C      27.388200000000005     31.602200000000003     34.326549999999997
C      26.270100000000014     30.635100000000001     36.437849999999997
C      28.823800000000013     31.617399999999989     37.673749999999998
C      27.438700000000004     31.140300000000003     35.720550000000003
C      23.091799999999999     28.906100000000002     33.303150000000002
C      24.334000000000010     29.904299999999992     33.069550000000007
C      24.630900000000011     30.651299999999992     31.990750000000002
C      26.018500000000003     31.319700000000005     32.177149999999997
C      27.116300000000003     31.923200000000001     31.584649999999996
C      28.421200000000006     32.680599999999998     32.030549999999998
C      30.388600000000011     31.816800000000008     43.643550000000005
C      29.725200000000015     31.673400000000008     44.792250000000010
C      30.344800000000006     32.556199999999990     41.377250000000004
C      28.810000000000016     31.638199999999998     36.165050000000001
C      31.270700000000012     32.419199999999996     34.585149999999999
C      29.499100000000006     32.633400000000002     30.889049999999997
C      30.072500000000012     33.601799999999997     40.465849999999996
C      29.726800000000011     32.252100000000006     40.052349999999997
C      28.188600000000008     32.405099999999997     30.611049999999999
C      32.290400000000012     31.460100000000004     33.853149999999999
C      33.711200000000005     31.652000000000001     34.213149999999999
C      31.136900000000011     32.248499999999993     42.510350000000003
C      34.014100000000013     31.352700000000006     35.769350000000003
C      38.562000000000012     31.485599999999998     32.500749999999996
C      38.022600000000004     32.135899999999992     33.741749999999996
C      42.953800000000015     33.951100000000004     34.021349999999998
C      43.235500000000009     33.360300000000002     32.602249999999998
C      39.736200000000011     32.137400000000007     31.703750000000003
C      39.067100000000011     33.100200000000001     34.252650000000003
C      42.148100000000007     33.017900000000004     31.873150000000006
C      41.588200000000008     33.819499999999998     34.618750000000006
C      40.756100000000018     32.726399999999998     32.582250000000002
C      40.516200000000012     33.177499999999995     33.909349999999996
C      37.328700000000012     30.542400000000008     32.170650000000002
C      36.519100000000002     30.740400000000001     33.373649999999998
C      35.704200000000007     29.465400000000002     33.556849999999997
C      36.839500000000008     31.772300000000008     34.439250000000001
C      40.036300000000004     31.763900000000000     30.215449999999997
C      37.923000000000009     29.369500000000009     29.910249999999998
C      37.171900000000008     29.641399999999990     31.112450000000003
C      38.817100000000011     33.589100000000009     35.698650000000001
C      37.466100000000012     33.370300000000007     36.399749999999997
C      36.582600000000006     32.309199999999997     35.828749999999999
C      42.161500000000011     35.101300000000002     34.531950000000009
C      41.962500000000006     35.818799999999996     33.116749999999996
C      43.244700000000009     35.850000000000001     32.166250000000005
C      44.155000000000015     34.431899999999999     32.070350000000005
C      36.803500000000014     31.128099999999996     36.967349999999996
C      35.239300000000007     32.688099999999999     35.882649999999998
C      42.455500000000008     35.635200000000005     36.041550000000001
C      43.653300000000009     31.899200000000000     32.981749999999998
C      50.302100000000003     43.270930000000007     36.686050000000002
C      50.555200000000006     41.908460000000005     35.794950000000000
C      47.654299999999999     39.574390000000008     40.969050000000010
C      45.949900000000014     37.449370000000002     40.856650000000002
C      49.536600000000007     43.253380000000000     37.962849999999996
C      50.052800000000005     40.842100000000002     36.456050000000005
C      45.105900000000005     42.037960000000005     39.784350000000003
C      44.858000000000011     37.648030000000013     40.028449999999999
C      47.913200000000018     41.938490000000016     39.526449999999997
C      48.785000000000011     39.324640000000002     37.716949999999997
C      48.851800000000004     42.089730000000010     38.366749999999996
C      49.223300000000002     40.754510000000010     37.602750000000000
C      47.382600000000011     40.722200000000008     40.141350000000003
C      46.460000000000008     41.725400000000008     39.479549999999996
C      51.115900000000003     44.317320000000002     36.102950000000007
C      52.377600000000015     42.980420000000002     34.338350000000005
C      52.081600000000009     44.278150000000011     34.902950000000004
C      51.527500000000018     41.834700000000012     34.654649999999997
C      47.042900000000017     38.355750000000008     40.934449999999998
C      44.745800000000010     38.695100000000011     39.057450000000003
C      44.536000000000008     37.510550000000009     41.519050000000007
C      49.026100000000007     44.639310000000002     38.395250000000004
C      49.545800000000007     45.768450000000009     37.137250000000009
C      49.723500000000016     44.713920000000009     36.005250000000004
C      50.307300000000005     39.430880000000009     35.703150000000001
C      51.392700000000005     39.250370000000004     34.650950000000009
C      52.125500000000017     40.541690000000017     34.321950000000001
C      48.549000000000007     38.505960000000009     41.615549999999999
C      45.959000000000017     36.518832000000010     39.506150000000005
C      46.586700000000000     35.236499999999992     40.117249999999999
C      48.438200000000002     46.957200000000007     37.148449999999997
C      52.574400000000011     38.396750000000011     35.105150000000002
C      50.930800000000005     38.936660000000010     33.352649999999997
C      29.115500000000011     31.173300000000005     39.111750000000001
C      39.243200000000016     35.956600000000002     39.279350000000008
C      38.231100000000005     36.745073000000012     38.503149999999998
C      35.283400000000007     35.512799999999999     42.198450000000008
C      38.759200000000007     35.450400000000009     40.601650000000006
C      36.879500000000000     36.913554000000012     39.174950000000010
C      36.658200000000001     35.375100000000003     42.516149999999996
C      35.217000000000013     36.231200000000008     40.842449999999999
C      37.465200000000010     35.665599999999998     41.307050000000004
C      36.526400000000010     36.320399999999992     40.378850000000000
C      40.612300000000005     35.949800000000003     38.564149999999998
C      40.808800000000005     37.000541000000013     37.307350000000000
C      39.702500000000015     37.661030000000004     36.789550000000006
C      38.361900000000006     37.533340000000003     37.331550000000007
C      41.482800000000005     35.347299999999997     39.389749999999999
C      42.017900000000012     37.170175000000008     36.380549999999999
C      42.931700000000006     35.197099999999999     39.479950000000002
C      43.405200000000008     35.628500000000003     40.873050000000006
C      39.551700000000011     34.465099999999993     41.451449999999994
C      40.915700000000008     34.634200000000000     40.839150000000004
C      40.318500000000014     38.779870000000010     36.884850000000000
C      39.248100000000001     34.427999999999997     43.017449999999997
C      35.741199999999999     37.539020000000008     38.295949999999998
H      27.550000000000011     33.293099999999995     44.022750000000002
H      29.063700000000011     30.216100000000004     46.359850000000009
H      25.350600000000014     33.987500000000004     46.411450000000002
H      26.742900000000006     29.871000000000002     43.910449999999997
H      27.773800000000008     30.955599999999990     42.736450000000005
H      32.074000000000005     36.147900000000000     34.401049999999998
H      34.372700000000009     36.977314000000000     33.512250000000002
H      37.270500000000013     39.971760000000003     36.430250000000001
H      32.387700000000002     42.504710000000010     35.626950000000001
H      32.172200000000011     43.072200000000002     37.224050000000005
H      28.610400000000013     40.949000000000012     34.418250000000000
H      29.373600000000010     41.071970000000007     37.886649999999996
H      31.665300000000016     40.021170000000019     32.695149999999998
H      32.036800000000007     41.589600000000011     32.043850000000006
H      30.166900000000005     41.110590000000002     32.048749999999998
H      30.156800000000011     42.369500000000009     38.158450000000002
H      30.760400000000004     40.935330000000008     39.006349999999998
H      37.233400000000010     43.361080000000008     35.404150000000001
H      37.414900000000003     43.106020000000001     37.259050000000002
H      36.302200000000013     29.056699999999999     30.852050000000002
H      26.531400000000005     29.311900000000001     47.160650000000004
H      44.069700000000012     31.339700000000001     32.113849999999999
H      42.657500000000006     38.324470000000005     39.630850000000002
H      36.243000000000009     39.896620000000013     39.860349999999997
H      35.917800000000014     44.126340000000013     39.886049999999997
H      37.460600000000007     42.674510000000012     40.721550000000008
H      24.439100000000010     29.536700000000003     36.234150000000000
H      26.084300000000013     29.823000000000000     38.348849999999999
H      23.760000000000012     31.147300000000008     31.242050000000003
H      30.434600000000010     31.920200000000001     45.530649999999994
H      31.701000000000008     33.720199999999998     34.421950000000010
H      30.479600000000012     32.846800000000009     30.423450000000006
H      30.311200000000014     34.580299999999994     40.740350000000007
H      32.152000000000015     31.508000000000003     32.850949999999997
H      32.281200000000005     30.242200000000004     33.773449999999997
H      33.627400000000002     32.751700000000007     34.235050000000001
H      34.178400000000011     31.585299999999997     33.326549999999997
H      32.096600000000009     32.954500000000003     42.561149999999998
H      34.059300000000007     30.263100000000001     35.704650000000001
H      32.904500000000006     31.506700000000002     36.313350000000000
H      42.244700000000002     33.536499999999990     30.936250000000005
H      39.172700000000006     32.115900000000003     29.383850000000002
H      40.185100000000006     30.446800000000003     29.852849999999997
H      37.969400000000007     28.253199999999993     29.795550000000002
H      38.869300000000010     30.247999999999998     29.755449999999996
H      37.026299999999999     29.192600000000006     28.839350000000000
H      40.738400000000013     32.576900000000002     29.998550000000002
H      39.226700000000008     34.681399999999996     35.869149999999998
H      39.641100000000009     33.332100000000004     36.415050000000008
H      36.964700000000008     34.321399999999997     36.365250000000003
H      37.456000000000010     33.285200000000010     37.346249999999998
H      41.612299999999998     37.028185000000015     33.283050000000003
H      40.881300000000010     35.463400000000000     32.605649999999997
H      43.022400000000005     35.688000000000009     31.122450000000004
H      43.743500000000004     36.872082000000013     32.045950000000005
H      44.905200000000008     34.369100000000010     32.843950000000007
H      44.664999999999999     33.704700000000010     31.420650000000002
H      37.833300000000008     30.940000000000005     37.237949999999998
H      36.365800000000007     30.033999999999999     37.284750000000003
H      36.422000000000004     31.714400000000005     37.804150000000007
H      35.076800000000013     33.619400000000006     35.475049999999996
H      34.731300000000005     32.808100000000003     36.861649999999997
H      43.518599999999999     35.840600000000002     36.145550000000000
H      42.442399999999999     34.834000000000010     36.801850000000002
H      42.847700000000017     31.263900000000000     33.089449999999999
H      44.154500000000006     31.637599999999999     33.921250000000001
H      38.290900000000008     42.151760000000010     35.992850000000004
H      48.165799999999997     42.952900000000007     40.309550000000002
H      52.965000000000018     43.145800000000015     33.433549999999997
H      42.798000000000016     38.864620000000002     37.781950000000009
H      45.041700000000006     38.567520000000016     38.006250000000009
H      44.316700000000004     38.284430000000008     42.197150000000008
H      47.883400000000009     44.941740000000010     38.236550000000008
H      49.228000000000009     44.980710000000009     39.366950000000003
H      50.535500000000013     46.067340000000009     37.629750000000001
H      49.106500000000004     44.479700000000001     35.066249999999997
H      51.453800000000008     44.811220000000006     36.920550000000006
H      49.257500000000000     39.107980000000012     35.268650000000008
H      50.882700000000007     38.655330000000014     36.329350000000005
H      53.226000000000013     40.593250000000019     33.839050000000000
H      52.266100000000009     40.566080000000014     32.914850000000001
H      45.375100000000018     39.554450000000010     39.599850000000004
H      46.007899999999999     36.856150000000014     38.469149999999999
H      46.470700000000001     34.260399999999990     39.654150000000001
H      47.591800000000006     35.096800000000009     39.800750000000001
H      46.399200000000008     35.412399999999998     41.136850000000010
H      48.866000000000007     47.746800000000007     36.530850000000001
H      47.512599999999999     46.552500000000002     36.627749999999999
H      48.088800000000006     47.542400000000008     38.147950000000009
H      52.180300000000017     37.686900000000009     35.772849999999998
H      52.947000000000017     39.175990000000006     35.915549999999996
H      53.533599999999993     37.872890000000012     34.571350000000002
H      50.479300000000009     37.745200000000011     33.357250000000008
H      51.674700000000016     38.574970000000015     32.564450000000008
H      50.505000000000003     39.679349999999999     32.652650000000001
H      22.466400000000007     29.272300000000008     34.119850000000000
H      28.670500000000011     29.990600000000008     39.527050000000003
H      30.262700000000002     42.507090000000005     33.955650000000006
H      34.512900000000009     35.197400000000009     42.903649999999999
H      37.011400000000009     35.164300000000004     43.515550000000005
H      34.512700000000009     36.606168000000018     40.405349999999999
H      37.586500000000015     38.165200000000006     36.724350000000001
H      43.672699999999999     34.378000000000000     39.134250000000002
H      39.283400000000015     33.407299999999999     41.247850000000000
H      41.373500000000007     34.997700000000002     41.668650000000000
H      41.351400000000012     33.598100000000009     40.664349999999999
H      39.095700000000001     35.281200000000005     43.767550000000000
H      40.174399999999999     33.661799999999999     43.332750000000004
H      38.357300000000009     33.644099999999995     43.107650000000007
H      34.789300000000011     37.324125000000002     38.765349999999998
H      35.665400000000005     38.678150000000009     38.147250000000000
N      26.771100000000011     30.433500000000002     46.836550000000003
N      42.956099999999999     39.088840000000012     38.817949999999996
O      35.669000000000011     41.265000000000015     33.698050000000009
O      28.131200000000007     36.813750000000006     31.125850000000000
O      22.676800000000014     28.271300000000004     32.392550000000000
O      34.981400000000008     28.609500000000004     33.561949999999996
O      48.593600000000002     38.035350000000008     42.617750000000001
O      53.112800000000007     46.403100000000009     33.847750000000005
O      48.918700000000008     38.272320000000015     37.849249999999998
O      44.023800000000008     42.330230000000007     39.671549999999996
O      39.987400000000008     39.977100000000007     36.869550000000004
O      42.635700000000014     38.132020000000004     36.022850000000005
O      43.714400000000012     36.145699999999998     41.936549999999997
S      35.386100000000006     36.396259900000011     36.530850000000001
