10

H      37.120000000000005     37.651299999999992     36.186700000000002
H      37.476500000000009     35.973590000000002     39.136700000000012
H      38.879999999999995     36.997860000000003     39.676700000000018
H      37.766700000000007     40.111440000000002     39.813299999999998
H      37.646900000000002     38.154110000000003     39.202600000000004
H      37.687899999999999     35.888559999999998     36.347300000000011
H      37.863900000000008     37.364100000000008     37.596699999999998
N      37.973000000000006     36.920420000000007     36.291900000000005
N      38.063200000000016     36.813780000000008     38.948300000000003
O      38.500600000000013     39.291589999999999     39.295100000000012
