57

C      39.639449999999997     34.351664999999997     37.286899999999989
C      38.680150000000012     42.018475000000009     37.346400000000003
C      38.379750000000001     34.239955000000009     38.077799999999996
C      37.232450000000000     41.954475000000002     37.875899999999987
C      40.132249999999999     35.744794999999996     37.152399999999986
C      39.364850000000004     40.834875000000011     37.022700000000000
C      36.184750000000008     35.278565000000000     38.802999999999997
C      35.487050000000011     40.362575000000007     39.017899999999997
C      35.308650000000000     36.407175000000009     38.510499999999993
C      34.927650000000000     38.979375000000005     39.302400000000006
C      39.720650000000006     38.416675000000012     37.221900000000005
C      37.642550000000000     35.412275000000008     38.193100000000001
C      36.813250000000011     40.602475000000013     38.328900000000004
C      35.859050000000011     37.744475000000008     38.833799999999997
C      39.352249999999998     36.907675000000012     37.491699999999994
C      38.873649999999998     39.498675000000006     37.328199999999995
C      38.019550000000010     36.883074999999991     38.187099999999987
C      37.580550000000002     39.424575000000004     38.050399999999996
C      37.127150000000000     38.025674999999993     38.344799999999992
C      40.085650000000001     33.024275000000003     36.712000000000003
C      39.858949999999993     31.732865000000007     37.441299999999998
C      38.506749999999997     31.709815000000003     38.058800000000005
C      37.786749999999998     32.930235000000010     38.467299999999994
C      36.704750000000004     32.784155000000013     39.247900000000001
C      35.911650000000009     34.029375000000002     39.466099999999997
C      38.886949999999999     43.349675000000005     36.851200000000006
C      37.819550000000007     44.380475000000004     37.023700000000005
C      36.566850000000002     44.381574999999998     37.799899999999994
C      36.257649999999998     43.005475000000004     38.000699999999995
C      41.447749999999999     36.010575000000003     36.386200000000002
C      42.062650000000005     34.455835000000008     36.571799999999996
C      41.345750000000010     33.278874999999999     35.925899999999999
C      33.511550000000000     38.608474999999999     38.740999999999985
C      35.310350000000000     39.590474999999998     40.568699999999993
H      40.304550000000006     40.925075000000007     36.537999999999997
H      34.597350000000006     40.893575000000013     38.672100000000000
H      34.298450000000003     36.046075000000002     38.886499999999998
H      40.758850000000010     38.806574999999995     36.994600000000005
H      40.493150000000000     30.909145000000006     37.450900000000004
H      38.165050000000008     30.676624999999998     37.883600000000001
H      36.688549999999992     31.753535000000003     39.365300000000005
H      34.920550000000006     33.841745000000003     39.780199999999994
H      39.756450000000001     43.658074999999997     36.242400000000004
H      38.216549999999998     45.323374999999999     36.494599999999991
H      35.873750000000001     45.279475000000005     38.229499999999987
H      35.386450000000011     42.695675000000008     38.623499999999993
H      42.069549999999992     36.619775000000004     37.022499999999994
H      41.449449999999999     36.361775000000009     35.374300000000005
H      43.195650000000001     34.381945000000002     36.387500000000003
H      41.864949999999993     34.365215000000006     37.605599999999995
H      42.076049999999995     32.421615000000003     35.845900000000000
H      41.129850000000005     33.607815000000002     34.871200000000002
H      32.804349999999999     38.545374999999993     39.549999999999997
H      33.343350000000001     37.703274999999991     37.988799999999998
H      32.901650000000004     39.169075000000007     38.195799999999991
H      36.363349999999997     39.300275000000013     40.999899999999997
H      34.519050000000007     39.962975000000000     41.128799999999998
