5

C      37.834049999999991     38.230750000000000     38.283414999999991
H      38.232150000000004     38.815350000000009     37.236874999999998
H      37.142049999999998     38.889649999999996     38.683814999999996
H      37.537250000000000     37.110350000000004     38.086494999999999
H      38.857950000000002     38.276450000000004     38.763125000000002
