50

C      36.432984999999988     38.714739999999992     38.318069999999992
C      37.009574999999998     39.131270000000001     39.766790000000000
C      40.955064999999991     36.571590000000000     37.015760000000000
C      41.622895000000000     36.980419999999995     38.161819999999999
C      37.355755000000002     38.048729999999999     37.431829999999998
C      38.348324999999988     38.651840000000000     40.032949999999992
C      39.563575000000000     37.045789999999997     36.508119999999998
C      40.726224999999999     37.666499999999999     39.165839999999989
C      38.832115000000002     37.905989999999996     37.490980000000000
C      39.464034999999996     38.229329999999997     38.831530000000001
C      35.158084999999986     39.090849999999989     37.648870000000002
C      34.328284999999994     40.228119999999997     38.504559999999998
C      34.947085000000001     40.884000000000000     39.655619999999999
C      36.125039999999998     40.269279999999995     40.245330000000003
C      41.617665000000002     35.691659999999999     35.999839999999999
C      42.916525000000007     35.193049999999999     36.395640000000000
C      43.688405000000003     35.712799999999994     37.529080000000000
C      42.986224999999990     36.757479999999994     38.346299999999992
C      34.377885000000006     38.693999999999996     36.499800000000000
C      32.341185000000010     39.856349999999999     37.058299999999988
C      33.015385000000009     40.644649999999999     38.069919999999996
C      35.426190899999995     38.103169999999999     35.672989999999999
C      36.743054999999998     37.713989999999995     36.079380000000000
C      37.627105000000000     36.814869999999999     35.273719999999997
C      38.955515000000005     36.262539999999994     35.399180000000001
C      41.337905000000006     35.224840000000000     34.573539999999994
C      39.691244999999995     35.308749999999996     34.225000000000001
C      37.641894999999991     38.197579999999995     41.017059999999994
C      37.686824999999999     36.801679999999998     41.869839999999996
C      36.228208999999993     40.505119999999991     41.696840000000002
H      41.093175000000002     37.863129999999998     40.013210000000001
H      34.231885000000005     41.702829999999999     40.163220000000003
H      43.401595000000000     34.527200000000001     35.617840000000001
H      44.794615000000007     35.585839999999997     37.433889999999998
H      43.420014999999992     37.303959999999996     39.329459999999997
H      32.646384999999995     41.750830000000001     38.311749999999996
H      35.066884999999999     37.752749999999999     34.714619999999996
H      37.055534999999992     36.481819999999992     34.346350000000001
H      41.503414999999990     34.249169999999999     34.231009999999998
H      42.064364999999995     35.537430000000001     33.720950000000002
H      38.961314999999999     34.350809999999996     34.282269999999997
H      39.256135000000000     35.320540000000001     33.111660000000001
H      36.999044999999995     35.657789999999999     41.852939999999990
H      37.804294999999996     36.968599999999995     42.888339999999999
H      35.810894999999988     41.401139999999991     41.825539999999997
H      36.703244999999995     39.700569999999999     42.548339999999996
H      38.993544999999997     36.450899999999997     41.480939999999997
H      31.205384999999996     39.863229999999987     36.640870000000000
H      32.514784999999989     38.476729999999996     35.417090000000002
N      32.998485000000002     39.008769999999991     36.307119999999998
