5

C      37.917100000000005     38.354849999999999     37.954849999999993
H      37.907299999999992     38.795150000000007     38.867950000000000
H      37.720800000000011     37.204849999999993     37.786449999999995
H      37.131399999999999     38.553950000000000     37.132050000000000
H      38.868600000000001     38.525149999999996     37.650149999999996
