63

C      37.411699999999996     42.875650000000000     38.241349999999997
C      35.617700000000006     34.376350000000002     38.189850000000007
C      36.462800000000001     41.948450000000008     38.916249999999991
C      34.940600000000003     35.380250000000004     39.128149999999991
C      38.529900000000005     42.267550000000007     37.375250000000008
C      36.930300000000003     34.858250000000005     37.603549999999998
C      36.649100000000004     40.456450000000004     38.908349999999984
C      35.644300000000001     36.712350000000001     38.916449999999998
C      39.820799999999998     40.420350000000006     36.450050000000005
C      40.005799999999994     38.916750000000008     36.450350000000000
C      38.580300000000001     36.645650000000003     36.845849999999999
C      38.684500000000000     40.819150000000008     37.385050000000007
C      37.466100000000004     36.156050000000000     37.657750000000007
C      38.955099999999995     38.015949999999997     36.940849999999998
C      37.889100000000006     39.869049999999994     38.230550000000008
C      36.941099999999999     37.340750000000007     38.319749999999999
C      37.889500000000005     38.454250000000002     38.027349999999998
C      37.172800000000002     44.330149999999996     38.493850000000009
C      36.021099999999997     44.699249999999999     39.433250000000001
C      35.073900000000002     43.788750000000007     39.773850000000010
C      35.193300000000001     42.351850000000006     39.502049999999997
C      35.107700000000001     33.018149999999999     38.409350000000003
C      34.048000000000002     32.673850000000002     39.401350000000008
C      33.463400000000000     33.804650000000002     40.171350000000004
C      33.780500000000004     35.224950000000007     40.069350000000000
C      40.907000000000004     41.227650000000004     35.804349999999999
C      42.139200000000002     40.656050000000008     35.213650000000001
C      42.132400000000004     39.236950000000000     35.238649999999993
C      41.127500000000005     38.263250000000006     35.749750000000006
C      40.649999999999999     42.505750000000006     35.990949999999998
C      39.493799999999993     43.207750000000004     36.702650000000006
C      38.158799999999999     45.039450000000002     37.835950000000011
C      39.297200000000004     44.563050000000004     37.131650000000008
C      37.282500000000006     33.806150000000002     36.411550000000005
C      37.223500000000001     32.286950000000004     36.914050000000003
C      35.848000000000006     32.026450000000004     37.367150000000009
C      35.865699999999997     30.301550000000006     37.569950000000006
C      37.669500000000006     31.158949999999997     36.035750000000007
H      36.131599999999999     39.768650000000008     39.420449999999988
H      35.050200000000004     37.421850000000006     39.412750000000003
H      39.143000000000001     35.876849999999997     36.434849999999997
H      35.960000000000001     45.804349999999999     39.782250000000005
H      34.150600000000004     44.044250000000005     40.248950000000008
H      34.520399999999995     41.541750000000008     39.804249999999996
H      33.626200000000004     31.706650000000003     39.601349999999996
H      32.809400000000004     33.410049999999998     41.154949999999999
H      33.430700000000002     36.035249999999998     40.570449999999994
H      42.979400000000005     41.130149999999993     34.845050000000001
H      43.190599999999996     38.651250000000005     35.060249999999996
H      41.513800000000003     37.201350000000005     35.855850000000004
H      41.551700000000004     43.030950000000004     35.595849999999999
H      38.258200000000002     46.150449999999999     37.887650000000008
H      40.023699999999998     45.345650000000006     37.005049999999997
H      36.535500000000006     34.047150000000002     35.378550000000004
H      38.304199999999994     33.929349999999999     36.044150000000002
H      37.861700000000006     32.289949999999997     37.825150000000008
H      35.134000000000007     32.087649999999996     36.566150000000007
H      34.773400000000002     30.074249999999999     37.487250000000003
H      36.500400000000006     29.849550000000001     38.353650000000002
H      35.718000000000004     29.921849999999999     36.506749999999997
H      37.933600000000006     31.649149999999999     34.946749999999994
H      37.110300000000002     30.141850000000005     35.838250000000002
H      38.856000000000002     31.263849999999998     36.476450000000000
