108

C      36.737914999999994     42.876249999999992     37.191699999999997
C      34.287244999999999     44.184349999999988     38.055600000000005
C      35.560735000000001     43.576849999999993     37.657600000000002
C      36.240855000000003     42.604950000000002     38.544500000000006
C      33.307275000000004     44.096750000000000     36.663000000000004
C      36.407504999999993     42.244950000000003     39.866499999999995
C      39.147415000000002     36.316449999999996     41.828600000000009
C      38.425404999999998     35.780349999999999     40.592800000000011
C      38.426184999999997     31.726549999999996     42.654699999999998
C      38.998715000000004     35.477049999999991     42.994799999999998
C      37.560194999999993     34.636949999999999     40.445600000000006
C      38.494294999999994     32.797349999999994     43.730799999999995
C      38.178044999999997     32.050349999999995     41.311599999999991
C      38.261674999999997     34.182649999999995     42.841999999999999
C      38.075215000000000     33.626449999999998     41.529699999999998
C      40.095214999999996     37.457549999999998     41.912100000000009
C      40.198215000000005     38.449449999999999     40.738600000000005
C      39.429514999999995     38.023249999999990     39.612000000000002
C      38.630234999999999     36.778449999999999     39.455700000000007
C      40.875415000000004     37.785249999999998     43.180199999999999
C      42.016315000000006     39.854149999999990     42.025400000000005
C      40.856014999999999     39.668549999999996     40.913000000000004
C      40.666314999999997     36.877150000000000     44.212499999999999
C      39.725915000000001     35.846549999999993     44.094099999999990
C      38.715374999999995     39.168049999999994     38.682099999999998
C      38.106155000000001     38.941649999999996     37.437800000000003
C      37.499485000000000     37.622749999999996     37.291400000000003
C      37.938965000000003     36.588449999999995     38.166000000000004
C      40.701215000000005     40.609849999999994     39.844899999999996
C      39.501815000000001     40.423549999999999     39.008100000000006
C      37.026184999999991     34.455849999999998     39.066599999999994
C      37.806344999999993     34.980350000000001     38.048600000000008
C      39.763915000000004     33.151650000000004     44.998400000000004
C      38.411005000000003     32.678449999999998     45.080199999999998
C      37.784875000000000     31.617749999999994     46.265399999999993
C      36.493825000000001     33.033449999999995     38.805899999999994
C      37.444725000000005     34.628050000000002     36.607000000000006
C      35.607065000000006     35.427149999999997     39.108100000000000
C      38.396704999999997     41.196550000000002     35.628900000000002
C      37.869674999999994     39.875349999999997     34.897100000000002
C      38.469305000000006     42.308750000000003     30.426900000000003
C      37.170585000000003     43.007549999999995     30.630700000000004
C      38.939815000000003     41.024149999999999     34.143200000000007
C      37.454394999999998     42.378850000000000     35.885000000000005
C      39.047915000000003     42.153049999999993     31.770300000000006
C      36.594215000000005     43.245449999999998     31.965900000000005
C      38.412725000000002     41.872249999999994     33.058499999999995
C      37.293995000000002     42.827050000000000     33.121900000000004
C      40.550614999999993     41.174949999999995     34.392500000000005
C      41.155515000000001     41.768450000000001     33.141399999999997
C      40.502515000000002     41.577349999999996     31.823700000000002
C      37.826724999999996     40.017349999999993     36.350500000000004
C      37.222954999999999     43.070149999999998     34.689900000000002
C      42.556615000000001     41.259950000000003     33.146000000000008
C      40.253815000000003     39.983849999999990     31.415199999999999
C      41.108015000000002     39.509950000000003     34.780200000000008
H      33.811035000000004     43.652249999999995     38.948100000000004
H      32.752835000000005     44.942349999999990     36.611100000000008
H      32.674685000000004     43.382249999999999     37.492500000000007
H      33.682084999999994     43.648749999999993     35.830000000000005
H      37.290585000000000     42.244749999999996     40.259399999999999
H      35.417304999999999     42.458849999999998     40.318100000000001
H      42.331315000000004     38.779049999999998     44.331200000000003
H      36.333575000000003     38.661949999999997     34.056800000000003
H      38.501175000000003     30.740549999999999     42.943100000000001
H      38.223274999999994     31.446149999999999     40.541899999999998
H      42.294514999999997     41.011049999999997     42.221800000000002
H      40.617715000000004     36.678249999999998     45.398899999999998
H      39.510915000000004     35.239549999999994     44.862999999999992
H      36.952455000000000     37.310749999999999     36.311100000000003
H      41.285915000000003     41.369249999999987     40.041200000000003
H      39.210115000000002     41.077649999999998     38.171600000000005
H      38.749064999999995     35.033450000000002     38.356000000000002
H      37.529935000000002     33.287849999999999     45.265200000000007
H      34.521025000000002     35.235450000000000     38.896599999999999
H      37.204515000000001     32.329149999999998     47.045299999999997
H      38.586865000000003     31.034949999999998     46.637099999999997
H      36.888755000000003     31.349649999999997     45.747799999999991
H      35.980905000000000     32.734749999999991     39.861900000000006
H      37.227304999999994     32.020249999999997     39.073400000000007
H      35.836015000000003     32.918049999999994     37.967000000000006
H      37.768854999999995     33.706149999999994     36.130600000000001
H      36.307815000000005     34.444649999999996     36.547500000000007
H      37.863885000000003     35.289749999999998     35.917600000000007
H      35.043185000000001     35.539449999999995     40.130199999999995
H      35.896754999999999     36.432649999999995     38.740600000000008
H      42.955414999999995     39.886650000000003     41.529000000000011
H      34.101365000000001     45.259450000000001     38.054500000000004
H      38.885615000000001     41.857849999999999     29.336600000000004
H      35.834965000000004     44.175149999999995     32.061300000000003
H      40.854514999999999     41.919449999999991     35.122200000000007
H      40.880915000000002     42.940049999999999     33.278500000000001
H      41.068314999999998     41.731449999999995     30.955900000000003
H      35.779655000000005     44.246949999999998     28.954700000000003
H      42.821015000000003     41.370049999999999     34.232200000000006
H      43.325314999999996     41.779049999999998     32.255100000000006
H      42.622915000000006     40.272149999999996     32.741400000000006
H      41.254214999999995     39.674250000000001     31.217400000000005
H      39.362515000000002     39.851849999999999     30.765600000000006
H      40.200815000000006     39.452349999999996     32.421399999999998
H      41.568815000000001     38.931649999999998     34.006100000000004
H      40.349514999999997     38.581149999999987     34.606800000000007
H      41.746714999999995     39.255650000000003     35.823200000000007
N      41.796314999999993     38.800550000000001     43.319100000000006
O      40.869614999999996     32.738849999999999     45.260500000000008
O      36.657565000000005     39.680349999999997     34.159200000000006
O      37.291204999999998     44.255849999999995     34.229600000000005
S      36.910854999999998     44.568649999999991     29.512400000000003
