6

C      38.356184999999996     38.408145999999988     37.454599999999999
C      37.483845000000002     37.805784999999986     38.290400000000005
H      38.264005000000004     39.362514999999988     37.425399999999996
H      39.156534999999998     37.995184999999992     37.072599999999994
H      37.357475000000001     36.637485000000012     38.480300000000000
H      36.843465000000002     38.318638599999986     38.927400000000006
