8

C      37.728049999999996     37.488049999999987     38.436799999999998
C      37.995949999999993     38.899449999999987     37.755810000000004
H      37.109550000000006     36.983149999999995     37.732440000000004
H      37.013350000000003     37.498450000000005     39.251940000000005
H      37.118549999999999     39.450950000000006     38.075140000000005
H      37.683250000000001     38.792450000000002     36.748059999999995
H      38.986649999999997     39.240750000000006     37.848110000000005
H      38.398550000000007     36.549049999999994     38.376080000000002
