5

C      38.237750000000005     38.248099999999994     37.935049999999990
H      37.950150000000008     37.233600000000003     38.078749999999999
H      37.154750000000007     38.766399999999997     38.070750000000004
H      38.691249999999997     38.062400000000004     36.954750000000004
H      38.845249999999993     38.223699999999994     39.045249999999996
