9

C      37.113049999999994     37.881700000000002     37.042135000000002
C      37.658049999999996     38.650000000000013     38.104964999999993
C      38.452649999999991     37.568000000000012     38.988534999999999
H      36.620550000000001     39.125200000000007     38.782065000000003
H      38.497649999999993     39.437700000000000     38.113234999999989
H      39.057049999999997     38.051500000000011     39.783844999999999
H      37.923749999999998     36.562300000000000     39.218685000000008
H      39.433650000000000     37.260400000000011     38.400295000000000
O      36.566350000000000     37.326700000000010     36.216155000000001
