5

C      38.141514999999991     38.024135999999999     37.787649999999992
H      38.192874999999994     38.557855000000011     38.677650000000000
H      38.799115000000000     37.123944999999999     37.885249999999999
H      38.689795000000004     38.876055000000001     37.322350000000000
H      37.200885000000000     37.720056000000007     37.505849999999995
