53

C      38.003719999999987     39.234024999999988     35.680179999999993
C      37.468699999999998     38.694824999999994     34.349740000000004
C      35.507440000000003     35.657825000000003     38.050400000000003
C      35.356539999999995     35.127224999999996     36.802640000000004
C      37.684179999999998     38.579425000000001     36.971160000000005
C      36.506659999999997     37.645224999999996     34.266700000000000
C      36.348100000000002     36.915625000000006     38.179189999999998
C      35.400229999999993     35.820824999999985     35.582909999999998
C      36.870859999999993     37.411225000000002     36.762960000000000
C      36.304559999999995     36.959225000000004     35.507580000000004
C      39.051079999999999     40.087125000000000     35.644249999999992
C      39.689219999999992     40.854224999999985     34.442170000000004
C      39.243589999999998     40.382225000000005     33.199396999999998
C      38.205230000000000     39.316024999999996     33.225284999999992
C      35.299300000000002     34.616624999999999     39.137810000000002
C      34.812489999999997     33.218524999999993     38.890929999999997
C      34.971620000000001     33.615025000000003     36.713619999999992
C      39.544359999999998     40.630125000000007     37.019510000000004
C      40.386380000000003     41.798924999999997     37.129750000000001
C      40.802539999999993     42.588624999999993     35.951219999999999
C      40.529749999999993     42.118525000000005     34.640190000000004
C      39.237379999999987     40.102924999999999     38.320200000000000
C      38.285899999999998     38.990825000000001     38.409959999999991
C      37.727519999999998     38.512825000000007     39.650239999999997
C      36.714050000000000     37.484724999999997     39.377109999999995
C      35.460059999999999     35.453824999999995     40.343340000000005
C      36.220050000000001     36.671724999999995     40.579070000000002
C      36.742689999999996     37.352024999999998     41.864010000000000
C      35.099469999999997     34.636624999999995     41.624650000000003
C      35.233080000000001     35.516324999999995     42.883249999999990
C      40.913619999999995     43.093824999999995     33.392312000000004
H      33.938590000000005     31.850075000000000     37.646109999999993
H      35.751739999999998     37.246825000000001     33.408475000000003
H      35.136629999999997     35.496924999999990     34.576599999999999
H      39.730869999999996     40.543625000000006     32.106249999999996
H      37.818309999999997     38.881625000000000     32.232349999999997
H      34.412080000000003     32.704424999999993     39.792479999999998
H      35.088369999999998     33.079524999999997     35.922130000000003
H      40.737399999999994     42.126724999999993     38.066870000000002
H      41.440449999999998     43.511624999999995     36.065130000000003
H      39.530460000000005     40.685625000000002     39.259190000000004
H      38.164929999999998     39.010125000000002     40.737310000000001
H      37.800339999999991     37.154925000000006     41.988219999999998
H      35.749330000000000     33.510925000000000     41.677610000000001
H      34.184889999999996     34.255825000000002     41.382939999999998
H      36.005030000000005     35.983424999999997     43.500450000000001
H      34.298540000000003     36.111724999999993     42.581030000000005
H      35.129069999999999     35.026925000000006     43.893750000000004
H      40.798730000000006     44.149924999999996     33.465512000000004
H      40.152109999999993     42.958725000000001     32.575250000000004
H      42.061409999999995     43.037224999999992     33.174207000000003
N      34.500849999999986     32.739024999999998     37.718689999999995
O      35.933380000000000     38.212824999999995     42.202779999999990
