70

C      39.782939999999996     38.742899999999992     37.779999999999994
C      38.781240000000004     38.226599999999991     36.978000000000002
C      36.567940000000000     40.824199999999990     40.767099999999999
C      35.612640000000006     39.940700000000007     40.020400000000002
C      39.439540000000001     39.890000000000001     38.728199999999994
C      37.409140000000001     38.886899999999997     36.722199999999994
C      37.788640000000008     41.365600000000001     40.134700000000002
C      36.001039999999996     39.704499999999996     38.608000000000004
C      38.140840000000004     40.470799999999997     38.945000000000000
C      37.201240000000006     39.840399999999988     37.952399999999990
C      41.135539999999992     38.219700000000003     37.910299999999999
C      41.363239999999998     36.935900000000004     37.182400000000001
C      40.459740000000004     36.313199999999995     36.207099999999997
C      39.216240000000006     37.000900000000001     36.139200000000002
C      36.155040000000007     41.382799999999989     41.997900000000001
C      34.923740000000002     40.835499999999996     42.347099999999998
C      34.089440000000003     39.711799999999997     40.092500000000001
C      33.865339999999996     40.102999999999994     41.588999999999999
C      42.158318000000008     38.681500000000000     38.816400000000002
C      43.393170000000005     37.982699999999994     39.072599999999994
C      43.617870000000011     36.912300000000002     38.155100000000004
C      42.600361000000007     36.257300000000001     37.397099999999995
C      41.662611900000002     39.905699999999996     39.614899999999999
C      40.569639999999993     40.782799999999995     39.262299999999996
C      40.314740000000008     42.173599999999993     40.331100000000006
C      38.972540000000002     41.885700000000000     40.996199999999995
C      36.479340000000001     38.171400000000006     35.977400000000003
C      37.326439999999998     37.748999999999995     34.739000000000004
C      38.191939999999995     36.476100000000002     35.135599999999997
C      32.589040000000004     39.768699999999995     42.318699999999993
C      40.434239999999996     42.188699999999997     38.801999999999992
C      41.766609000000003     42.901799999999994     38.233900000000006
C      36.828040000000001     37.129599999999996     33.232399999999991
C      37.330940000000005     35.357600000000005     35.660499999999992
C      35.278340000000007     39.068199999999990     35.453699999999998
C      38.133040000000001     32.954000000000008     36.109200000000001
C      37.674640000000004     33.761099999999999     35.114599999999996
H      38.978339999999996     32.409400000000005     35.722200000000001
H      35.260640000000002     38.944000000000003     38.351699999999994
H      40.627039999999994     35.621800000000007     35.519100000000002
H      36.577739999999999     42.179599999999994     42.534400000000005
H      34.833140000000007     40.818099999999987     43.409599999999998
H      33.178840000000001     39.457800000000006     39.289000000000001
H      44.160180000000004     38.468100000000007     39.675899999999999
H      44.480860000000000     36.461799999999997     38.466700000000003
H      42.907710000000016     35.206000000000003     37.099699999999999
H      42.593028000000011     40.536699999999996     40.070699999999995
H      38.611640000000001     42.421699999999987     41.920900000000003
H      38.962640000000000     41.202900000000000     41.777600000000000
H      35.911139999999996     37.390400000000000     36.572199999999995
H      38.102039999999995     38.425300000000007     34.452099999999994
H      38.685139999999990     36.278599999999997     34.182699999999990
H      40.996839999999999     42.802300000000002     41.010799999999996
H      39.582039999999999     42.715400000000002     38.334099999999992
H      42.614170000000009     42.585599999999999     38.621300000000005
H      41.989310000000010     43.941500000000005     38.263699999999993
H      41.750011000000008     42.813299999999998     36.952200000000005
H      37.764140000000005     36.810500000000005     32.590400000000002
H      36.729739999999993     38.182900000000004     32.704999999999998
H      35.903039999999997     36.463400000000007     33.182500000000005
H      37.345940000000006     35.338899999999995     36.842500000000001
H      36.245840000000008     35.579200000000000     35.280000000000001
H      34.207240000000006     38.925100000000000     36.069200000000002
H      35.681140000000006     40.214399999999998     35.180099999999996
H      35.029140000000005     38.791799999999995     34.349600000000002
H      38.800739999999998     33.476699999999994     36.917999999999999
H      37.516240000000003     32.058499999999995     36.633899999999997
H      37.050040000000003     33.322900000000004     34.487200000000001
H      38.575939999999996     34.021299999999997     34.489800000000002
O      31.519140000000000     39.759799999999998     42.543400000000005
