44

C      38.379594999999995     37.672635000000000     38.070369999999990
C      38.264495000000011     36.627205000000004     37.110869999999991
C      33.798735000000008     37.553035000000008     38.457369999999990
C      37.176794999999998     38.331405000000004     38.895269999999996
C      36.819295000000011     36.472345000000004     36.586269999999999
C      34.823395000000005     37.897835000000001     39.345868900000006
C      35.977795000000000     37.603395000000006     38.547069999999984
C      35.674295000000001     36.913025000000005     37.182369999999985
C      39.548495000000003     38.266475000000007     38.666169999999994
C      40.813395000000000     37.049934999999998     36.861170000000001
C      42.107995000000003     37.531525000000002     36.003869999999992
C      39.640794999999997     36.203375000000008     36.482469999999992
C      39.668495000000007     39.511744999999998     39.460480000000004
C      40.975095000000010     39.942095000000002     38.883369999999999
C      41.921895000000006     38.995005000000006     38.356569999999991
C      40.913095000000013     37.992605000000005     37.886470000000003
C      38.576595000000012     40.079475000000002     40.298139999999997
C      37.160995000000000     39.297365000000006     40.060182999999995
C      35.986395000000002     39.535995000000007     40.665410000000001
C      34.794215000000008     38.672565000000006     40.594480000000004
C      36.928195000000002     36.127575000000007     35.226669999999999
C      38.360195000000004     35.377161000000008     34.703969999999998
C      39.759395000000012     35.327272999999998     35.375670000000000
C      35.158235000000005     37.276405000000004     41.295930000000006
H      42.142095000000012     38.704655000000002     35.694569999999999
H      39.431495000000012     41.702194999999996     41.074890000000011
H      33.575475000000012     36.775095000000007     36.362870000000001
H      32.794205000000005     37.593135000000004     38.929569999999998
H      41.305495000000008     40.914515000000002     39.327240800000006
H      43.076095000000009     38.943375000000003     38.221570000000000
H      33.793335000000013     39.204375000000006     40.927320000000002
H      35.882995000000008     40.508444999999995     41.277200000000001
H      36.655595000000005     36.610205000000001     34.408569999999990
H      36.190495000000013     35.446880000000007     34.809069999999991
H      38.249795000000006     34.388504999999995     34.555470000000000
H      38.400094999999993     35.585529000000008     33.568269999999998
H      40.113595000000004     34.297805000000004     35.816769999999991
H      40.663294999999991     35.731825000000008     34.928169999999994
H      36.302295000000001     36.735884999999996     40.807820000000000
H      35.397305000000003     37.374985000000002     42.431730000000002
H      34.415985000000006     36.500915000000006     41.242980000000003
N      34.161565000000010     36.706555000000002     37.324969999999993
O      43.205794999999995     37.189705000000004     36.362169999999992
O      38.569195000000008     41.026585000000004     41.064589999999995
