48

C      36.677899999999994     38.376588999999996     39.259199999999993
C      37.968399999999995     37.684188999999996     39.416300000000000
C      37.750100000000003     36.220488999999993     34.691000000000003
C      38.843700000000005     35.549188999999991     35.216600000000000
C      36.253700000000002     38.219688999999995     37.782100000000000
C      38.754200000000004     36.656489000000001     38.678400000000003
C      37.024400000000000     37.314588999999991     35.395399999999995
C      38.942200000000007     35.613488999999994     36.611399999999996
C      37.025600000000004     37.344188999999993     36.850299999999997
C      38.101799999999997     36.392888999999997     37.475600000000000
C      36.095000000000006     39.374288999999997     40.252400000000002
C      36.819400000000002     39.515188999999999     41.449699999999993
C      38.099800000000009     38.758788999999993     41.657699999999991
C      38.631200000000000     38.035789000000001     40.553699999999999
C      35.074100000000001     39.051689000000003     37.538800000000002
C      34.707700000000003     40.288568400000003     38.351599999999991
C      34.890800000000006     40.345739000000002     39.962699999999998
C      40.100100000000005     35.721989000000001     39.232300000000002
C      41.086200000000005     36.742388999999996     39.869899999999994
C      40.146400000000007     37.431188999999996     40.938599999999994
C      41.953099999999992     37.611688999999991     39.048300000000005
C      34.105600000000003     37.905689000000002     37.464400000000005
C      37.345199999999998     36.316488999999997     33.153700000000001
H      36.502199999999995     36.836088999999994     32.958199999999998
H      36.691800000000008     38.238789000000004     34.773000000000003
H      39.038400000000003     34.916988999999994     37.465800000000002
H      38.719499999999996     39.082489000000002     42.492699999999999
H      35.010700000000007     39.561889000000001     36.496900000000004
H      33.719600000000007     40.191988999999992     37.956200000000003
H      35.411000000000001     40.969037000000014     37.609000000000002
H      35.056999999999995     41.145710999999999     40.446499999999993
H      34.175400000000003     40.056688999999999     40.609600000000000
H      39.836999999999996     35.247188999999999     40.152499999999989
H      40.625799999999998     35.006488999999995     38.533700000000003
H      41.802399999999992     36.006088999999996     40.438099999999999
H      40.786900000000003     38.158689000000003     41.459599999999995
H      40.168800000000005     36.741488999999994     41.732199999999999
H      39.463600000000007     34.854289000000001     34.620999999999995
H      42.393700000000003     37.288888999999983     38.130800000000001
H      41.464600000000004     38.531688999999986     38.533700000000003
H      42.922699999999999     37.957089000000003     39.640099999999990
H      34.108499999999999     37.578689000000004     36.442600000000006
H      33.077300000000001     38.180188999999991     37.752600000000001
H      34.530300000000004     37.142088999999991     38.242500000000000
H      37.320899999999995     35.246188999999994     32.652400000000000
H      38.221399999999996     36.682388999999993     32.665899999999993
H      36.861100000000000     40.273713800000010     43.347600000000000
O      36.028200000000005     40.022989000000003     42.511299999999999
