5

C      37.749349999999993     38.137879999999996     37.975586999999997
H      38.218849999999989     37.509079999999997     38.670946999999998
H      37.320350000000005     37.228160000000003     37.329053000000002
H      37.203550000000007     38.771839999999997     38.609457000000006
H      38.796449999999993     38.530739999999994     37.742323000000006
