5

C      37.778499999999994     37.712149999999994     37.944324999999992
H      37.569400000000002     38.941749999999999     37.662805000000006
H      38.912300000000002     38.399050000000003     37.975054999999998
H      37.087699999999998     37.446649999999991     38.925875000000005
H      37.324700000000007     37.058250000000001     37.074124999999995
