5

C      37.903449999999992     37.858609999999999     37.797849999999997
H      39.069450000000003     37.643019999999993     37.532450000000004
H      37.698949999999996     38.800319999999999     37.077149999999996
H      36.930549999999997     37.199680000000001     37.638150000000003
H      37.817549999999997     38.229439999999997     38.922850000000004
