8

C      39.165887999999981     38.342169999999996     37.912599999999991
C      40.602894999999990     36.897670000000005     38.239300000000000
H      35.368835000000004     39.922770000000000     37.775700000000001
H      37.083434999999994     39.140169999999998     37.361300000000000
O      40.631164999999996     35.889030000000005     38.638700000000000
O      37.958834999999993     38.135270000000006     37.972900000000010
O      36.317134999999993     40.110969999999995     37.505099999999992
O      40.383034999999992     38.348770000000002     37.926400000000001
