6

C      38.049199999999999     37.658349999999999     38.557249999999996
C      37.686200000000007     38.352850000000004     37.414550000000006
H      37.755399999999995     36.562650000000005     38.693650000000005
H      38.758500000000005     38.116549999999989     39.338149999999999
H      37.241499999999995     37.569249999999997     36.661850000000001
H      37.710800000000006     39.437349999999995     37.507949999999994
