14

C      37.632449999999992     37.186299999999989     36.560674999999989
C      38.237750000000005     36.678500000000000     37.717264999999998
C      38.373849999999990     37.681199999999990     38.918024999999993
C      37.741650000000007     39.045500000000004     38.881925000000003
C      37.020449999999997     39.070499999999996     37.654175000000002
C      36.797750000000008     38.452199999999991     36.341645000000000
C      39.539950000000005     37.302199999999985     39.742725000000000
H      37.544449999999998     36.294699999999992     35.878034999999997
H      38.752549999999999     35.698700000000002     37.622745000000002
H      37.585149999999999     39.891899999999993     39.773724999999999
H      36.773250000000004     40.301299999999998     37.782554999999988
H      36.141149999999996     38.549499999999995     35.425975000000001
H      39.688650000000010     38.057699999999997     40.574024999999999
H      39.858850000000004     36.074200000000005     39.925224999999998
