8

C      38.759924999999996     37.892499999999991     37.840764999999990
C      37.229524999999995     37.974100000000000     38.490764999999996
H      38.810974999999999     37.341099999999997     36.796154999999999
H      39.310424999999995     38.877199999999995     37.781084999999990
H      36.689575000000005     37.676600000000001     37.672065000000003
H      36.983554999999996     38.946700000000000     38.794205000000005
H      37.035764999999998     37.053300000000000     39.203845000000001
H      39.156504999999996     37.437099999999994     38.751675000000006
