8

C      38.840799999999987     38.503899999999987     37.547249999999998
C      37.554800000000000     37.537599999999998     38.001549999999995
H      39.584599999999995     37.945500000000010     37.012950000000004
H      38.700900000000004     39.300199999999990     37.055950000000003
H      39.298199999999994     39.100500000000011     38.389450000000004
H      36.415400000000005     37.758800000000008     38.105450000000005
H      37.646199999999993     36.699800000000010     37.281550000000003
H      37.700999999999993     37.394400000000005     38.987049999999996
