7

H      39.566778049999996     38.733349999999994     37.548199999999994
H      38.251388050000010     38.996250000000003     38.903399999999991
H      37.760428050000009     37.619749999999996     37.532600000000002
H      37.592348050000005     39.256250000000001     37.096600000000009
H      36.433221950000004     36.743749999999999     37.582999999999998
N      38.521488050000009     38.871349999999993     37.739300000000000
O      36.833188050000004     37.392049999999998     38.467500000000001
