28

C      39.648620000000001     39.161099999999990     36.329814999999996
C      40.165540000000000     36.224499999999992     36.081315000000004
C      39.829430000000002     36.397300000000001     39.986814999999993
C      39.994160000000008     37.737099999999998     36.525814999999994
C      39.399830000000009     36.649900000000002     37.311014999999998
C      38.489290000000004     38.850200000000001     39.352114999999998
C      39.554550000000006     36.217900000000000     38.641814999999994
C      39.145490000000002     37.519400000000005     39.258414999999999
C      36.501430000000013     40.067899999999995     38.777914999999993
C      37.978740000000002     39.729399999999991     38.304715000000002
C      38.117900000000006     39.495400000000004     36.848914999999991
C      35.819830000000003     40.601800000000004     39.783914999999993
C      38.594160000000002     40.942300000000003     37.692215000000004
C      38.891869999999997     35.389499999999998     36.415414999999996
C      40.168369999999996     40.157499999999999     35.444144999999992
H      40.184710000000003     36.487700000000004     40.897215000000003
H      36.123830000000005     39.736200000000004     37.849914999999996
H      37.279412000000001     39.687400000000004     36.241315000000000
H      34.737330000000000     40.576599999999999     39.310114999999996
H      35.911229999999996     41.032100000000000     40.732915000000006
H      37.946110000000004     39.172000000000004     40.321314999999998
H      39.586190000000002     40.992200000000004     37.999115000000003
H      37.873720000000006     41.693999999999996     37.721714999999989
H      38.813300000000005     34.306000000000004     36.926315000000002
H      37.892500000000005     35.649600000000000     36.815714999999997
H      41.109870000000001     35.788099999999993     36.325514999999996
H      41.262670000000000     40.041899999999991     35.102784999999997
H      39.996530000000007     41.297199999999997     35.230814999999993
