8

C      38.730761500000000     37.768299999999996     38.702549999999995
C      37.733497500000013     38.015700000000002     37.414949999999990
H      37.849497499999998     37.587199999999996     39.459750000000000
H      39.204802500000000     38.456400000000002     39.059550000000002
H      36.795197500000000     37.540799999999997     37.902649999999994
H      37.945597500000005     37.331099999999999     36.540250000000000
H      37.502197499999994     39.076499999999996     37.318550000000002
H      38.957752499999998     36.923500000000004     38.166749999999986
