90

C      36.008749999999992     34.894499999999994     35.876599999999996
C      38.066249999999989     39.595099999999988     39.711699999999993
C      38.972949999999997     38.380600000000001     39.436500000000002
C      33.251449999999998     38.443799999999996     40.505999999999993
C      36.602049999999991     39.504099999999994     39.610600000000005
C      36.837550000000000     37.247199999999992     39.557699999999997
C      33.659649999999999     37.255099999999985     39.969200000000001
C      34.314749999999997     38.254099999999994     39.355199999999996
C      35.851349999999989     38.386499999999984     39.580000000000005
C      38.811450000000001     40.859799999999993     39.206099999999999
C      40.148649999999989     40.789099999999991     38.856599999999993
C      41.051749999999998     39.736800000000002     39.171799999999998
C      40.436250000000001     38.419200000000004     39.432499999999997
C      36.088449999999995     41.008700000000005     40.045100000000005
C      36.371649999999995     42.008499999999984     38.793700000000001
C      38.007249999999999     42.046300000000002     38.714499999999994
C      41.329649999999994     37.415399999999991     39.597200000000001
C      38.282149999999994     37.125799999999998     39.606200000000001
C      34.044649999999990     38.784300000000002     37.947000000000003
C      32.905450000000002     37.590999999999994     37.415600000000005
C      33.146450000000002     36.125899999999987     37.710999999999999
C      32.949050000000000     36.079299999999989     39.228900000000003
C      31.889750000000003     35.249899999999997     37.166400000000003
C      34.425249999999998     35.759299999999996     37.228200000000001
C      39.774949999999997     37.440600000000003     36.594100000000005
C      41.153549999999996     37.174499999999995     35.911900000000003
C      42.237949999999991     34.923800000000000     36.871600000000001
C      38.175649999999997     35.232299999999995     37.182900000000004
C      39.497249999999994     34.674199999999999     37.443899999999999
C      43.219349999999999     35.190499999999986     35.833700000000000
C      39.296650000000000     36.281299999999987     37.132599999999996
C      42.260950000000001     36.220600000000005     36.190599999999996
C      39.015949999999989     38.711299999999994     36.267600000000002
C      40.176049999999996     39.660799999999995     36.003699999999995
C      41.703150000000001     39.650899999999993     35.661100000000005
C      42.083449999999999     38.286699999999996     35.688600000000001
C      37.635249999999999     39.164299999999997     36.288000000000004
C      37.258049999999997     40.519599999999997     35.933600000000006
C      38.478049999999989     41.345399999999984     35.665100000000002
C      39.861350000000002     40.959999999999994     35.788200000000003
C      38.303849999999997     34.046199999999999     37.938300000000005
C      37.452449999999992     34.984999999999985     35.927100000000003
C      36.639150000000001     37.874700000000004     36.311000000000000
C      42.827350000000003     35.044999999999987     38.350299999999997
C      44.342550000000003     35.784700000000001     38.424800000000005
C      40.951949999999989     34.066299999999984     36.933199999999999
H      31.699650000000002     40.164199999999994     40.785400000000003
H      36.954949999999997     36.851399999999984     36.836300000000001
H      40.566350000000000     41.628500000000003     38.428699999999999
H      35.009549999999997     40.942299999999989     40.266100000000002
H      36.425949999999993     41.688499999999991     40.757700000000000
H      35.958350000000003     43.062399999999997     39.101799999999997
H      35.820050000000002     41.740299999999991     37.767499999999998
H      38.530450000000002     43.017099999999999     38.869099999999996
H      38.339549999999996     41.846000000000004     37.760899999999999
H      42.388350000000003     37.574099999999987     39.672800000000002
H      40.978949999999998     36.468099999999993     39.929500000000004
H      36.463949999999990     36.376599999999996     39.814200000000000
H      38.849249999999991     36.212499999999991     39.695100000000004
H      35.073050000000002     38.844700000000003     37.729800000000004
H      33.739049999999992     39.757199999999997     37.937899999999999
H      32.071249999999999     37.399400000000000     38.148299999999999
H      32.683749999999996     38.050399999999996     36.475099999999998
H      33.574849999999998     35.182500000000005     39.149000000000001
H      31.905250000000006     36.079099999999997     39.674900000000001
H      42.197349999999993     39.705799999999996     39.224899999999998
H      31.011849999999999     35.874299999999991     37.384000000000000
H      31.487950000000001     34.696200000000005     36.417500000000004
H      31.710650000000005     34.605099999999993     38.040299999999995
H      35.243949999999998     35.483400000000003     38.088799999999999
H      34.835250000000002     36.680099999999996     36.778800000000004
H      41.549950000000003     33.175299999999993     37.545400000000001
H      43.943349999999995     34.460999999999999     35.459900000000005
H      42.378149999999991     40.450699999999983     35.617300000000000
H      43.167850000000001     38.535600000000002     36.034300000000002
H      36.196849999999998     40.842399999999998     35.591999999999999
H      37.742549999999994     42.384699999999995     35.252700000000004
H      40.701050000000002     41.471000000000004     36.039700000000003
H      38.215849999999996     32.937600000000003     38.154299999999992
H      38.143050000000002     34.840499999999992     35.077400000000004
H      42.226450000000000     35.733699999999999     39.058700000000002
H      42.869149999999998     33.999399999999994     38.754400000000004
H      44.416049999999991     36.906299999999987     38.145299999999999
H      44.988149999999997     35.657799999999995     39.284299999999995
H      44.887349999999991     35.414399999999986     37.560600000000001
H      40.731049999999996     33.658699999999996     35.890100000000004
H      31.105950000000004     38.942300000000003     40.109500000000004
N      32.056150000000002     39.102000000000004     40.922599999999996
O      34.850749999999998     34.932699999999997     35.913400000000003
O      35.648049999999991     38.057499999999990     35.721299999999999
