5

C      37.851099999999995     38.348949999999995     38.063193499999997
H      38.822299999999998     38.121249999999996     38.517966500000007
H      37.177700000000002     38.491950000000003     38.853112500000002
H      38.064000000000000     38.808350000000004     37.146887499999998
H      37.411900000000003     37.191649999999996     37.825687500000008
