6

C      37.224049999999991     38.345099999999995     38.116000000000000
C      38.572650000000003     37.972999999999999     37.738000000000007
H      36.757050000000000     37.742599999999996     37.291900000000005
H      36.722450000000002     38.671899999999994     38.993400000000001
H      38.891649999999998     37.328100000000006     37.006599999999999
H      39.277549999999998     37.870500000000007     38.599699999999999
