5

C      38.159449999999993     38.306950000000001     37.951299999999989
H      38.712649999999996     38.480950000000007     37.015599999999999
H      38.630350000000007     38.281650000000006     38.984400000000001
H      37.287350000000004     38.772549999999995     38.018599999999999
H      37.989250000000013     37.227450000000005     37.845700000000001
