35

C      37.539249999999996     38.044449999999991     38.115749999999991
C      38.791749999999993     38.518949999999997     38.806749999999994
C      40.823650000000001     35.785950000000000     35.594549999999998
C      37.763250000000006     36.802349999999997     37.411650000000002
C      40.039149999999999     37.967449999999999     38.440949999999987
C      39.392450000000004     35.633649999999996     35.780449999999995
C      41.477949999999993     36.573349999999998     36.588850000000001
C      39.025750000000002     36.503849999999993     36.975249999999988
C      40.339850000000006     37.048250000000003     37.300149999999995
C      36.340049999999998     39.415450000000000     39.751249999999999
C      36.124450000000003     40.373350000000002     40.732049999999994
C      37.573850000000000     40.178849999999990     40.303249999999991
C      35.146349999999998     37.661250000000003     37.871749999999999
C      35.206750000000007     37.182649999999995     39.382249999999999
C      36.258050000000004     38.266449999999999     38.758049999999997
C      36.494149999999998     36.060150000000000     36.575250000000004
C      35.317550000000004     37.070650000000001     36.539549999999998
C      34.047550000000008     36.287450000000000     36.251349999999988
C      35.629350000000009     38.355149999999995     35.611950000000000
H      34.070550000000004     37.294150000000002     39.481949999999998
H      41.078949999999999     35.154049999999998     34.624249999999996
H      41.095750000000002     38.407550000000001     38.793749999999989
H      38.755850000000002     35.094850000000001     35.118850000000002
H      42.754950000000001     36.675350000000002     36.641649999999998
H      35.654950000000007     36.895649999999996     40.273550000000000
H      35.972450000000002     35.010249999999999     36.993449999999996
H      36.788950000000007     36.304549999999999     35.603549999999998
H      33.245049999999999     36.976050000000001     35.617049999999999
H      33.712949999999992     35.607849999999999     37.184149999999995
H      34.293950000000002     35.591850000000001     35.456750000000000
H      36.560350000000007     38.240650000000002     35.000549999999997
H      36.187249999999999     38.933349999999997     36.506750000000004
H      34.733950000000000     38.809950000000001     35.137949999999996
H      35.657150000000009     40.989750000000001     41.375750000000004
N      38.685750000000006     39.702749999999995     39.749249999999996
