8

C      37.689449999999994     38.745599999999996     38.165599999999991
C      38.059850000000004     37.170400000000001     38.033799999999999
H      37.552750000000003     39.118200000000002     37.021900000000002
H      38.353450000000002     39.346499999999999     38.803600000000003
H      39.281350000000003     37.054200000000002     37.812299999999993
H      36.718649999999997     38.710400000000000     38.717399999999998
H      37.701550000000005     36.841799999999999     37.044699999999999
H      37.723750000000003     36.653500000000001     38.978099999999998
