15

C      38.871600000000001     39.686299999999996     36.841099999999997
C      37.832000000000008     38.943600000000004     37.708700000000000
C      37.822100000000006     37.634200000000000     37.135300000000001
C      37.208200000000005     36.485399999999998     37.948300000000003
C      38.216200000000001     39.213700000000003     39.092700000000001
H      38.868200000000002     37.487400000000008     36.905100000000004
H      36.987499999999997     39.551600000000008     37.834700000000005
H      37.931399999999996     35.731100000000005     38.273700000000005
H      37.429299999999998     37.618700000000004     36.118000000000002
H      36.439700000000002     37.420000000000002     38.508700000000005
H      36.663300000000007     35.894999999999996     37.230699999999999
H      37.365200000000002     39.131300000000003     39.881999999999998
H      38.628100000000003     40.167300000000004     38.933599999999998
H      39.093800000000002     38.553399999999996     39.471200000000003
O      39.560299999999998     40.268899999999995     36.268300000000004
