112

C      41.764449999999997     35.665250000000000     39.299499999999995
C      40.916350000000008     36.021450000000002     40.416100000000000
C      36.106750000000005     31.707150000000002     39.402799999999999
C      41.156850000000006     34.788250000000005     38.280099999999990
C      39.638850000000005     35.218950000000007     41.036000000000001
C      35.255650000000003     31.506149999999995     40.560899999999990
C      41.829449999999994     34.246650000000002     37.115499999999997
C      38.772649999999999     32.758650000000003     39.203199999999995
C      39.037850000000006     34.031349999999989     38.907799999999995
C      38.848349999999996     34.293949999999995     40.202399999999997
C      36.049250000000001     32.672650000000004     40.391199999999998
C      37.333449999999999     32.374949999999998     39.585399999999993
C      43.258650000000003     35.779949999999999     39.176599999999993
C      43.925850000000011     36.767449999999997     40.220900000000000
C      43.018649999999994     37.301849999999988     41.222899999999996
C      41.632450000000006     36.875950000000003     41.369900000000001
C      43.945949999999996     35.071249999999992     38.114999999999995
C      45.476450000000000     35.427850000000007     37.972200000000001
C      46.096550000000008     36.096149999999994     39.084499999999991
C      45.337350000000001     36.730050000000006     40.220599999999990
C      43.264949999999999     34.470349999999996     37.020300000000006
C      39.631350000000012     34.743449999999996     37.784499999999994
C      39.004249999999999     35.351650000000006     42.341200000000001
C      39.492750000000001     36.551450000000003     43.178699999999992
C      40.484850000000009     37.397649999999999     42.414699999999996
C      39.640650000000008     32.004750000000001     38.206800000000001
C      41.184650000000005     38.376549999999995     43.050399999999996
C      40.206650000000010     35.789349999999999     44.466700000000003
C      35.756750000000004     32.389449999999997     41.834299999999999
C      40.177550000000011     38.704650000000001     41.825999999999993
C      38.852650000000011     41.041349999999994     39.220199999999991
C      37.996650000000002     40.943650000000005     40.350399999999993
C      29.802350000000008     40.267550000000000     36.381399999999999
C      36.915950000000009     42.637950000000004     33.935199999999995
C      30.451550000000008     40.482849999999999     37.694699999999997
C      30.802450000000004     40.547750000000008     35.301800000000000
C      35.547450000000012     42.659149999999997     33.698800000000006
C      38.377450000000010     41.419449999999998     37.967500000000001
C      36.504050000000007     40.611649999999997     40.076799999999992
C      37.378050000000002     42.125150000000005     35.234300000000005
C      32.352750000000000     40.352449999999990     39.168700000000001
C      33.722050000000003     40.291550000000001     39.420299999999997
C      33.230950000000007     41.733149999999995     34.279399999999995
C      31.819250000000007     40.553249999999991     37.820099999999996
C      32.111550000000001     41.291449999999998     35.315600000000003
C      34.622950000000003     42.217649999999992     34.647300000000001
C      36.945650000000001     41.440049999999999     37.681899999999999
C      36.048250000000010     40.814849999999993     38.710700000000003
C      36.523550000000000     41.802049999999994     36.241399999999999
C      34.624350000000007     40.700550000000007     38.325000000000003
C      32.720350000000010     40.939949999999996     36.535200000000003
C      35.080950000000001     41.511250000000004     35.836299999999994
C      34.173349999999999     41.020249999999990     36.934899999999999
C      35.623450000000005     39.752650000000003     40.911799999999999
C      34.299350000000004     39.726050000000001     40.627699999999990
C      38.311950000000010     40.765149999999991     41.875199999999992
C      36.971950000000007     40.645750000000007     42.716399999999993
C      35.919450000000012     39.423649999999995     42.420199999999994
C      32.553650000000005     42.017150000000001     32.910899999999998
C      31.973550000000007     42.847549999999998     31.723999999999997
C      38.683950000000010     42.212549999999993     41.942399999999992
C      30.808250000000005     43.779449999999997     32.472899999999996
C      39.227750000000000     39.980050000000006     42.602599999999995
C      40.609050000000011     40.845250000000007     39.220399999999998
C      46.272149999999996     37.386049999999997     41.098999999999990
H      41.474850000000004     34.601950000000002     35.960099999999997
H      41.811550000000011     33.146749999999997     37.415999999999997
H      43.400250000000000     38.122650000000007     41.805700000000002
H      46.162049999999994     34.865949999999998     37.323299999999989
H      47.228549999999998     36.054849999999988     39.072000000000003
H      43.834549999999993     34.050349999999995     36.210200000000000
H      39.535049999999998     34.257350000000002     36.924699999999987
H      39.118450000000010     35.640050000000002     37.630200000000002
H      38.176249999999996     34.803950000000000     42.629499999999993
H      38.651949999999999     37.339250000000007     43.563000000000002
H      41.322749999999999     39.343450000000004     43.898799999999994
H      42.225750000000005     38.207250000000002     42.997299999999996
H      40.736350000000002     36.454750000000004     45.041499999999999
H      40.990350000000007     35.162850000000006     43.929000000000002
H      39.805450000000008     34.792349999999999     44.583299999999994
H      36.263550000000009     32.897750000000002     42.695700000000002
H      34.825650000000003     33.039349999999999     42.156499999999994
H      40.438850000000002     38.930549999999997     40.871299999999991
H      41.084550000000007     41.790250000000000     38.965899999999991
H      28.771450000000005     39.897849999999991     36.281700000000001
H      37.735150000000004     43.005350000000007     33.226900000000001
H      29.905549999999998     40.366649999999993     38.588299999999990
H      30.564350000000008     40.449849999999998     34.187399999999997
H      35.323450000000008     43.060550000000006     32.749899999999997
H      39.266249999999999     41.714950000000002     37.342999999999989
H      38.492850000000004     42.106849999999994     35.456599999999995
H      31.601350000000004     40.085850000000008     40.039999999999992
H      33.434850000000004     39.170149999999992     41.223999999999990
H      37.092050000000000     40.464449999999999     43.810299999999998
H      36.656450000000007     41.658950000000004     42.929999999999993
H      36.381250000000009     38.437749999999994     42.603099999999998
H      34.935250000000003     39.637850000000000     42.919600000000003
H      32.750750000000011     43.718450000000004     31.595399999999998
H      31.337949999999999     42.217950000000002     30.958499999999997
H      38.319949999999992     42.849050000000005     42.870399999999989
H      38.437550000000002     42.843549999999993     40.834199999999996
H      39.683750000000003     42.238950000000003     42.158599999999993
H      30.116849999999999     44.440550000000002     32.022599999999997
H      31.392950000000003     44.613950000000003     32.763199999999998
H      30.347950000000008     43.083549999999988     33.205500000000001
H      38.617850000000004     39.137450000000001     43.086500000000001
H      39.648750000000007     40.683149999999998     43.279699999999991
H      40.705849999999998     40.124250000000004     38.252799999999993
H      41.290649999999999     40.417649999999995     39.834499999999991
O      40.224950000000007     31.386050000000001     37.460999999999999
O      46.806950000000001     37.965750000000000     41.747199999999992
O      33.038350000000001     40.871649999999988     33.031299999999995
