70

C      35.590199999999996     34.781399999999991     41.039799999999993
C      39.180800000000005     42.780699999999996     39.761800000000001
C      36.938000000000002     42.745199999999997     40.800100000000000
C      41.393100000000004     40.804299999999998     37.715499999999999
C      38.124200000000002     43.359199999999987     40.501499999999993
C      36.893100000000004     36.481999999999999     39.304000000000002
C      36.152499999999989     35.441900000000004     39.826700000000002
C      40.715099999999993     39.510700000000000     35.399900000000002
C      36.482299999999995     41.400900000000007     40.449599999999997
C      38.556799999999996     38.075100000000006     37.490600000000001
C      36.528099999999995     39.293399999999991     40.166699999999999
C      40.564700000000002     41.689200000000000     38.601900000000001
C      37.705199999999991     37.465800000000002     38.522700000000000
C      36.907799999999995     37.873900000000006     39.544400000000003
C      40.466200000000001     39.903299999999987     37.067499999999995
C      37.256000000000000     40.452100000000002     39.657899999999998
C      39.098999999999990     39.413300000000007     37.650300000000001
C      38.327399999999997     40.272099999999995     38.539399999999993
C      39.111699999999999     41.495000000000005     38.977499999999992
C      40.664800000000000     38.278599999999997     36.308799999999998
C      39.469700000000003     37.339500000000001     36.500599999999999
C      35.456000000000003     41.018000000000001     41.583199999999998
C      35.641599999999997     39.637100000000004     41.338499999999996
C      38.846099999999993     35.736300000000000     34.239999999999995
C      38.953899999999990     37.067200000000000     34.954899999999995
C      40.447800000000001     42.889599999999987     39.625500000000002
C      39.888999999999996     37.045599999999993     33.835699999999996
C      35.961500000000001     33.861199999999997     39.961999999999996
C      37.051199999999994     32.484600000000000     39.948500000000003
C      34.021600000000007     35.237099999999998     41.488999999999990
C      37.770799999999994     38.037000000000006     34.726199999999992
C      41.496399999999994     37.394199999999998     33.933099999999996
C      36.440700000000007     37.937299999999993     33.726900000000001
C      36.529200000000003     34.561400000000006     42.274000000000001
C      39.937100000000001     35.743600000000001     37.032100000000000
C      41.744000000000000     38.130899999999997     35.313799999999993
C      40.767099999999999     41.015500000000003     34.758399999999995
H      36.404499999999999     43.440200000000004     41.675399999999989
H      42.092199999999991     41.295399999999987     36.992800000000003
H      38.321399999999997     44.329400000000007     40.923099999999998
H      34.885300000000001     41.882899999999992     42.466999999999999
H      35.154399999999995     38.781499999999994     41.820399999999999
H      37.816299999999998     35.438100000000006     33.811900000000001
H      39.260099999999994     34.861400000000003     34.650199999999998
H      41.205399999999997     43.799099999999996     40.077900000000000
H      39.471499999999992     35.337999999999994     38.051699999999997
H      39.881900000000002     37.576099999999997     32.775199999999998
H      34.918699999999987     33.400800000000004     39.887799999999999
H      36.368799999999993     31.670599999999997     39.965100000000000
H      37.092900000000000     32.132999999999996     40.990600000000001
H      37.926199999999994     32.520200000000003     39.182499999999997
H      33.232900000000001     34.417500000000004     41.308700000000002
H      33.916600000000003     35.463099999999997     42.610700000000001
H      34.140900000000002     36.208699999999993     41.199900000000000
H      37.207099999999997     38.067300000000003     35.669399999999996
H      38.299099999999996     38.879499999999993     34.680800000000005
H      42.166600000000003     36.504199999999997     33.907599999999995
H      41.800600000000003     37.938299999999998     32.978600000000000
H      36.589200000000005     37.950800000000001     32.624800000000000
H      35.627099999999999     38.712199999999996     34.169499999999999
H      36.151899999999998     36.929599999999994     34.078000000000003
H      36.033400000000000     33.689700000000002     42.700099999999999
H      37.488899999999987     34.180599999999998     42.097199999999994
H      36.627600000000001     35.183499999999995     43.375200000000000
H      40.916699999999992     35.237300000000005     37.081800000000001
H      39.709699999999998     34.952299999999994     36.242199999999997
H      41.409599999999998     41.750699999999995     35.216600000000000
H      42.767099999999999     38.439099999999996     35.601399999999998
H      39.630499999999998     41.128399999999999     35.146299999999997
H      40.622500000000002     41.378500000000003     33.823799999999999
