5

C      38.005799999999994     38.002449999999996     38.086449999999999
H      38.656899999999993     38.635250000000006     38.829750000000004
H      37.159800000000004     37.309849999999997     37.999949999999998
H      38.840199999999996     37.273350000000001     38.232149999999990
H      38.078099999999992     38.726649999999999     37.170249999999996
