16

C      38.302989999999987     37.444399999999995     37.585699999999996
C      36.879289999999997     37.531700000000001     36.856400000000001
C      38.587330000000001     36.475800000000000     38.603399999999993
C      39.871070000000003     37.064099999999996     39.237700000000004
C      40.311749999999996     38.236299999999993     38.626100000000001
C      39.189506999999999     38.547800000000002     37.668799999999997
C      35.854489999999998     37.880400000000002     37.733900000000006
C      39.436259999999997     39.831200000000003     37.103300000000004
H      36.690489999999997     37.424599999999998     35.787700000000001
H      38.103489999999994     35.502499999999998     38.648400000000002
H      40.451670000000000     36.850999999999999     40.212299999999999
H      41.236710000000002     38.713000000000001     38.821600000000004
H      36.020689999999988     37.410400000000003     38.883800000000001
H      34.763289999999998     37.997500000000002     37.557299999999998
H      40.088810000000002     40.322099999999992     37.655699999999996
H      38.803041999999991     40.497500000000002     36.415000000000006
