135

C      36.185824999999994     34.610659999999996     42.745999999999995
C      34.872064999999992     34.818159999999992     42.682300000000005
C      42.137024999999994     35.794759999999997     40.084800000000001
C      41.232224999999993     36.412759999999992     39.113300000000002
C      40.119324999999989     35.318259999999995     43.312999999999995
C      38.006925000000003     35.588960000000000     41.268800000000006
C      41.988225000000000     35.361760000000004     41.583000000000006
C      34.134234999999997     35.762559999999993     41.762399999999992
C      40.578924999999998     35.358260000000001     41.797499999999999
C      39.499324999999999     35.662760000000006     40.809800000000003
C      37.498024999999998     34.563959999999994     42.151200000000003
C      36.985324999999996     34.033760000000001     43.801400000000001
C      37.127825000000001     34.816759999999988     40.294999999999995
C      43.516725000000001     36.140060000000005     39.917999999999999
C      43.526124999999993     36.673859999999991     38.541200000000003
C      42.151924999999999     36.723859999999988     38.122800000000005
C      39.806424999999990     35.910159999999991     39.443600000000004
C      39.249524999999991     35.081459999999993     44.428200000000004
C      39.245724999999993     33.463440000000006     44.904599999999995
C      36.836624999999991     32.438659999999999     44.355200000000004
C      38.097625000000001     32.924800000000005     43.974700000000006
C      38.895325000000000     36.207459999999998     45.392600000000002
C      39.912824999999998     36.242360000000005     44.303800000000003
C      43.358325000000001     34.794759999999997     42.317599999999999
C      44.625225000000000     36.199759999999998     40.809600000000003
C      44.635024999999992     35.326059999999998     42.030799999999999
C      33.706515000000003     34.346559999999997     41.785200000000003
C      46.786924999999997     35.459159999999997     43.030400000000000
C      44.079124999999998     36.091260000000005     43.225899999999996
C      45.639324999999999     34.448859999999996     42.257000000000005
C      43.841825000000000     44.808059999999998     37.254200000000004
C      35.370804999999997     39.492559999999997     32.467300000000002
C      39.509524999999996     41.328159999999997     35.088300000000004
C      39.001624999999997     36.975059999999999     36.910400000000003
C      36.461824999999990     40.143459999999990     33.179000000000002
C      35.950625000000002     37.542659999999998     34.710700000000003
C      38.042025000000002     41.304859999999991     34.465400000000002
C      37.840924999999999     36.922959999999989     36.188599999999994
C      40.032624999999996     40.273259999999993     35.602900000000005
C      39.819924999999998     38.160659999999993     36.848500000000001
C      37.603724999999997     39.956959999999995     34.115000000000002
C      37.493324999999999     37.707059999999998     35.136499999999998
C      39.482125000000003     38.900059999999996     35.659500000000001
C      38.315224999999998     38.788459999999986     34.781599999999997
C      34.087615000000000     39.885260000000002     32.345399999999998
C      34.846435000000000     36.718559999999997     34.887000000000000
C      33.400505000000003     40.831760000000003     33.369000000000000
C      35.911124999999998     41.555160000000001     33.637900000000002
C      34.519325000000002     41.323560000000001     34.415700000000001
C      37.062724999999993     42.221360000000004     34.192099999999996
C      34.604044999999999     37.800659999999993     34.172499999999999
C      34.046884999999996     40.374859999999998     30.785800000000002
C      32.155054999999997     40.636160000000004     34.275599999999997
C      39.937325000000001     41.288860000000000     36.697499999999998
C      42.074925000000000     42.688360000000003     35.848199999999999
C      42.014824999999995     41.993859999999998     34.650900000000007
C      40.725424999999994     40.943259999999995     34.273899999999998
C      34.405065000000000     38.494060000000005     32.877000000000002
C      42.962425000000003     43.930160000000001     36.017300000000006
C      40.631625000000000     42.837059999999994     36.419400000000003
C      39.047824999999996     35.961959999999991     38.046300000000002
C      31.761285000000001     40.823260000000005     32.762200000000007
C      29.362085000000000     43.673360000000002     32.444499999999998
C      30.766804999999998     43.092060000000004     31.868299999999998
C      30.696035000000002     44.378159999999994     32.254100000000001
C      31.345495000000000     41.710359999999994     31.773899999999998
C      30.729554999999998     40.356259999999992     32.187500000000000
C      30.676495000000003     45.240960000000001     30.846699999999998
C      31.566234999999999     44.708359999999999     33.519000000000005
C      37.884724999999996     30.658680000000000     42.261500000000005
C      39.183425000000000     30.322770000000002     41.418700000000001
C      38.114425000000004     31.760039999999993     43.399399999999993
H      33.126514999999998     36.252559999999988     35.878200000000000
H      37.629924999999993     36.811459999999997     41.482600000000005
H      33.307695000000002     36.387360000000001     42.050799999999995
H      36.154125000000001     35.451960000000000     40.201500000000003
H      44.362425000000002     37.123159999999999     37.887200000000000
H      41.916625000000003     37.014259999999993     37.174500000000002
H      38.928024999999991     33.634259999999998     45.863500000000002
H      36.439124999999997     32.029420000000002     45.359900000000003
H      40.037624999999998     32.790830000000000     44.920999999999992
H      38.645625000000003     37.117260000000002     45.957200000000000
H      45.306125000000002     37.115259999999992     40.605100000000000
H      47.653925000000001     36.069760000000002     42.481900000000003
H      46.020424999999996     35.936459999999997     43.608900000000006
H      42.160724999999992     33.428920000000005     43.578200000000002
H      44.643425000000001     37.167760000000001     43.162100000000002
H      44.046224999999993     35.737259999999992     44.331000000000003
H      45.709125000000000     33.343419999999995     42.103899999999996
H      47.430225000000000     34.948260000000005     43.645299999999999
H      43.254124999999995     45.631659999999997     37.509800000000006
H      43.939124999999990     43.702259999999995     35.699800000000003
H      37.075625000000002     36.114359999999991     36.337400000000002
H      40.728225000000002     38.417659999999998     37.512599999999999
H      34.831554999999994     40.697059999999993     35.359700000000004
H      34.079295000000002     42.308659999999989     34.846200000000003
H      35.419805000000004     42.176959999999994     32.751400000000004
H      37.212124999999993     43.245359999999991     34.316199999999995
H      33.045414999999998     40.249459999999999     30.464400000000001
H      34.875664999999998     39.963259999999991     30.063800000000004
H      34.430785000000000     41.538759999999996     30.606099999999998
H      31.664484999999999     41.496459999999999     34.775400000000005
H      31.759814999999996     39.479360000000000     34.458399999999997
H      39.196824999999990     41.010259999999988     37.472600000000007
H      42.857225000000000     44.741360000000000     35.194900000000004
H      42.094324999999998     42.802560000000000     34.081100000000006
H      42.485224999999993     42.063459999999992     36.707999999999998
H      40.899625000000000     40.454160000000002     33.371900000000004
H      42.986024999999998     41.462360000000004     34.651799999999994
H      45.017225000000003     44.850359999999995     37.106500000000004
H      44.169724999999993     44.054159999999996     38.102599999999995
H      40.077224999999999     43.366559999999993     37.151000000000003
H      40.441424999999995     43.250060000000005     35.398300000000006
H      39.270424999999996     34.998159999999999     37.836800000000004
H      37.864125000000001     35.854159999999993     38.168600000000005
H      43.677824999999999     33.046840000000003     43.758200000000002
H      32.509385000000002     33.086649999999992     40.634299999999996
H      30.503994999999996     39.276759999999996     31.944200000000002
H      29.863824999999999     45.092459999999988     30.042800000000000
H      31.690944999999999     45.258259999999993     30.272500000000001
H      30.591164999999997     46.301860000000005     30.942599999999999
H      32.744455000000002     44.707859999999997     33.473399999999998
H      31.592244999999998     45.837559999999996     33.216200000000001
H      31.242555000000003     44.526259999999994     34.582000000000001
H      37.270324999999993     33.849859999999993     39.936900000000001
H      37.038124999999994     31.105359999999994     41.582300000000004
H      37.379224999999991     29.698139999999999     42.581700000000005
H      39.737324999999991     29.778270000000003     42.122600000000006
H      38.864425000000004     29.879769999999997     40.404699999999998
H      40.060724999999998     31.051689999999997     41.360599999999998
H      39.063825000000001     31.262359999999997     44.001400000000004
N      42.976224999999999     33.419539999999998     42.965900000000005
O      33.429585000000003     33.361949999999993     40.706900000000005
O      34.087044999999996     36.335160000000002     36.089200000000005
O      28.346074999999999     44.276259999999994     32.675400000000003
