5

C      37.984849999999994     37.817200000000000     37.851849999999992
H      37.945149999999998     38.936400000000006     37.817149999999998
H      38.887749999999997     37.063599999999994     37.725849999999994
H      37.734849999999994     37.285899999999998     38.827449999999999
H      37.112250000000003     37.429500000000004     37.172550000000001
