9

C      39.265749999999997     37.578749999999999     37.933899999999994
C      37.046449999999993     38.555450000000000     38.501700000000000
C      38.101349999999996     38.755850000000002     37.710099999999997
H      39.964349999999996     38.013750000000002     38.574699999999993
H      39.554749999999999     37.354250000000000     36.817100000000011
H      37.330349999999996     37.727849999999997     39.182899999999989
H      36.035650000000004     38.903950000000002     38.719600000000000
H      38.176749999999998     39.355850000000004     36.841800000000006
H      38.978949999999998     36.644149999999996     38.321600000000004
