83

C      37.202500000000001     33.698949999999996     38.088749999999990
C      38.653800000000004     33.300350000000002     38.064250000000001
C      34.937500000000007     28.513150000000010     42.856249999999989
C      36.257600000000004     32.806850000000004     38.951650000000001
C      38.893599999999999     31.986650000000004     38.629350000000002
C      34.505800000000001     27.409050000000008     41.889049999999997
C      37.511500000000005     28.748950000000008     40.284649999999999
C      35.832799999999999     30.568950000000008     40.008850000000010
C      38.535900000000005     29.595050000000008     39.621150000000000
C      36.670200000000001     31.485550000000011     39.318750000000009
C      38.146799999999999     30.925550000000001     39.294950000000000
C      36.214000000000006     29.194950000000006     40.619950000000003
C      35.336700000000008     28.360149999999997     41.446750000000009
C      36.727399999999996     34.852750000000007     37.380150000000000
C      37.703799999999994     35.618550000000006     36.432350000000000
C      39.084799999999994     35.261050000000004     36.719750000000005
C      39.616899999999994     34.144150000000010     37.323549999999997
C      35.383500000000005     35.257150000000003     37.384850000000000
C      37.995300000000000     38.039250000000003     35.447450000000003
C      35.995500000000007     37.534950000000002     36.498949999999994
C      34.586500000000001     34.715750000000000     38.477750000000000
C      35.019600000000004     33.365950000000005     39.115049999999997
C      34.268600000000006     32.451250000000009     39.832750000000004
C      34.454800000000006     31.219550000000005     40.416949999999986
C      40.442500000000003     31.643050000000009     38.598250000000007
C      41.403700000000001     32.967950000000009     38.702750000000009
C      35.050700000000006     29.811050000000009     43.541650000000004
C      41.963499999999996     35.286250000000010     37.452849999999998
C      40.286400000000008     41.833550000000002     36.041150000000002
C      40.507700000000007     40.704150000000006     36.729950000000002
C      41.131600000000006     45.889550000000007     37.341850000000008
C      40.478900000000003     45.634350000000005     35.996549999999999
C      40.665600000000005     43.288750000000007     36.176749999999998
C      40.709899999999998     40.856650000000002     38.248050000000006
C      41.279200000000003     44.731750000000005     38.113349999999997
C      40.620000000000005     44.346250000000005     35.200150000000008
C      40.886600000000001     43.405650000000001     37.645350000000008
C      40.802000000000000     42.180450000000000     38.564949999999996
C      39.279600000000002     41.561650000000007     34.916849999999997
C      38.781699999999994     40.342150000000004     34.387349999999998
C      38.950099999999999     39.148550000000000     35.312049999999999
C      41.033299999999997     47.398850000000003     37.597450000000009
C      40.506300000000003     48.346250000000005     36.909950000000009
C      39.818400000000004     47.984350000000006     35.658749999999998
C      39.706500000000005     46.737049999999996     35.305350000000004
C      38.909700000000001     37.905950000000004     34.448149999999998
C      37.187300000000008     36.858850000000004     35.965950000000007
C      34.990200000000002     36.681250000000006     36.903549999999996
C      39.357499999999995     37.546050000000008     33.044350000000009
H      40.265200000000007     44.000050000000002     34.283650000000009
H      34.466000000000001     26.645750000000000     42.442149999999998
H      37.844800000000006     27.882450000000006     40.769350000000003
H      39.558200000000006     29.334150000000008     39.759850000000000
H      39.971300000000006     35.898350000000008     36.262950000000004
H      36.091900000000003     38.622750000000003     36.444549999999992
H      33.628200000000007     35.022450000000006     38.854150000000004
H      33.330700000000000     32.929250000000010     40.256250000000009
H      33.658600000000007     30.437350000000002     40.514550000000000
H      34.397200000000005     31.360150000000004     41.516950000000008
H      40.606200000000001     30.822650000000010     37.858249999999998
H      40.851999999999997     31.074850000000005     39.598349999999996
H      41.583300000000001     33.065250000000006     39.782049999999998
H      42.275000000000006     32.725250000000010     38.098049999999986
H      42.669300000000000     34.687750000000001     36.922250000000005
H      41.552000000000007     35.713349999999998     36.591650000000001
H      42.310299999999998     35.702350000000010     38.447950000000006
H      40.078099999999999     38.661149999999999     37.269149999999996
H      40.714000000000006     39.919350000000009     39.015650000000008
H      41.908400000000007     44.982950000000002     39.127549999999985
H      40.860500000000002     42.789350000000006     39.489649999999997
H      38.705900000000007     42.227150000000002     34.136049999999997
H      38.475500000000004     40.398649999999996     33.347949999999997
H      41.754800000000003     47.544150000000009     38.453150000000008
H      40.485700000000001     49.354250000000000     37.235749999999996
H      39.420300000000005     49.051550000000006     35.332650000000001
H      39.219300000000004     46.632850000000005     34.258549999999985
H      33.926800000000007     36.932150000000007     37.217150000000004
H      33.747900000000001     27.326550000000005     41.240949999999998
H      40.431800000000003     37.889749999999999     32.983950000000007
N      40.928600000000003     34.242350000000002     37.969650000000001
N      40.091100000000004     39.334049999999998     36.415950000000009
O      35.150099999999995     30.863450000000007     43.876350000000002
O      38.531299999999995     37.413850000000004     32.123649999999998
