8

C      38.713999999999999     37.631149999999991     37.901349999999994
C      37.499200000000002     38.750149999999998     38.250149999999991
H      39.510700000000000     38.261850000000003     38.384649999999993
H      39.239499999999992     37.822850000000003     36.836349999999996
H      38.999300000000005     36.449649999999998     37.940849999999983
H      37.546000000000006     39.550350000000002     37.474949999999993
H      37.366700000000002     39.303150000000002     39.163650000000004
H      36.489300000000000     38.283450000000002     38.068249999999992
