49

C      41.134474999999995     37.434549999999987     32.903399999999991
C      41.254075000000000     37.668849999999992     34.270699999999991
C      39.950115000000004     40.133449999999982     34.823199999999986
C      37.913505000000001     37.818349999999995     39.036420000000007
C      38.123004999999999     37.634150000000005     40.518480000000004
C      41.110975000000003     41.219049999999996     39.428219999999996
C      38.797705000000001     38.535149999999987     38.026209999999999
C      38.997014999999998     38.407449999999997     41.240700000000004
C      40.617284999999995     40.328749999999999     38.371720000000003
C      40.795065000000001     40.538950000000000     40.635439999999996
C      39.570005000000002     39.398949999999999     38.989219999999996
C      39.809315000000005     39.419449999999998     40.477000000000004
C      37.496135000000002     36.817249999999987     37.997880000000002
C      36.443215000000002     35.786850000000001     38.631390000000010
C      36.211085000000004     35.860950000000003     40.084170000000000
C      37.172225000000005     36.567149999999998     41.020899999999997
C      37.316065000000002     36.674750000000003     36.544914000000006
C      36.854275000000001     35.549850000000006     35.736699999999992
C      35.991134999999993     34.705050000000000     36.460746000000000
C      35.890305000000005     34.684249999999992     37.923340000000003
C      37.960615000000004     37.899850000000001     36.019199999999991
C      38.949424999999998     38.813350000000000     36.522078000000000
C      35.238014999999997     35.068150000000003     40.914659999999998
C      34.927465000000005     34.907849999999996     42.264640000000000
C      36.012715000000000     35.754649999999998     43.039979999999993
C      36.981684999999999     36.545749999999998     42.440500000000000
C      39.073574999999998     37.998949999999994     42.781009999999995
C      37.974065000000003     37.144350000000003     43.418240000000004
C      40.356744999999997     39.401749999999993     36.234299999999990
C      40.773924999999998     40.573149999999998     37.043432000000003
C      40.886274999999998     38.839150000000004     34.994199999999992
H      41.503675000000001     36.925449999999998     34.972499999999982
H      38.948255000000003     40.168650000000000     35.038199999999989
H      40.316514999999995     41.167449999999988     34.851799999999990
H      41.884574999999998     42.111549999999994     39.408729999999998
H      41.030875000000002     40.475250000000003     41.758530000000000
H      37.207915000000000     35.490250000000003     34.740699999999997
H      35.580855000000000     33.888450000000006     35.838799999999999
H      35.263255000000001     34.189250000000001     38.413910000000001
H      37.746015000000000     38.361750000000001     34.867500000000000
H      34.601664999999997     34.348550000000003     40.286450000000002
H      34.115425000000002     34.469049999999996     42.861030000000007
H      36.133365000000005     35.997749999999996     44.116970000000002
H      39.614065000000004     36.973150000000004     42.669989999999991
H      39.798225000000002     38.384349999999998     43.450640000000007
H      37.250494999999994     37.554849999999988     44.235300000000002
H      38.294615000000000     36.186049999999994     44.171469999999999
H      41.547675000000005     41.305849999999992     36.675170999999992
O      41.062775000000002     37.498949999999994     31.764699999999998
