8

C      37.347335000000001     38.667699999999996     37.948599999999999
C      38.161765000000003     37.248699999999999     37.995199999999997
H      36.685095000000004     39.025999999999996     38.856899999999996
H      36.677134999999993     38.703100000000006     37.143100000000004
H      38.254595000000009     39.367999999999995     37.590900000000005
H      38.278665000000004     36.907999999999987     38.784199999999998
H      37.687564999999992     36.632000000000005     37.212800000000001
H      39.322865000000007     37.479499999999987     37.803100000000001
