161

C      42.890559999999994     36.761119999999991     27.159749999999988
C      36.436959999999999     36.350699999999996     38.913849999999996
C      34.860935000000005     31.388815000000001     48.801640000000006
C      33.425349999999995     31.998646999999998     48.737780000000008
C      35.067040000000006     34.619139999999994     40.292149999999992
C      35.698970000000003     31.047599999999996     47.686240000000005
C      33.476849999999999     32.740510000000000     47.334630000000004
C      35.296509999999998     33.330120000000001     41.083849999999998
C      33.005449999999996     34.850999999999999     43.686030000000002
C      33.047050000000013     34.020249999999997     44.876270000000005
C      36.401110000000003     31.178102899999999     45.254439999999995
C      33.852750000000000     34.554380000000002     42.481389999999998
C      35.378309999999999     31.433194000000000     46.270069999999997
C      34.826372000000006     33.473030000000001     42.466030000000003
C      34.225682000000006     32.392310000000002     46.139100000000006
C      34.288654000000008     33.282100000000000     44.894280000000009
C      35.202799999999996     32.891930000000002     43.809770000000000
C      32.179250000000010     33.355950000000000     47.179790000000004
C      35.219650000000001     30.655699999999996     50.041700000000006
C      34.227833000000004     30.514000000000003     50.990300000000005
C      33.029449999999997     31.245840999999999     51.059820000000009
C      32.577550000000002     31.805192999999996     49.760260000000002
C      35.958680000000001     31.625821000000002     44.032910000000001
C      38.024780000000007     30.958899999999993     45.672540000000005
C      38.060510000000008     37.399499999999989     40.888750000000002
C      37.263190000000009     38.645260000000000     41.721425000000004
C      37.885400000000004     37.850829999999995     42.408030000000004
C      38.166139999999999     34.878639999999997     40.208749999999988
C      37.558120000000002     35.927790000000002     40.939650000000000
C      37.471310000000003     36.834179999999996     37.944249999999990
C      39.269900000000007     35.306069999999998     39.213349999999991
C      38.711560000000006     36.458939999999998     38.504649999999998
C      39.237740000000002     38.058949999999996     40.018349999999991
C      36.994820000000004     39.121040000000001     43.033510000000007
C      35.155910000000006     36.806629999999991     38.569349999999993
C      36.449370000000002     35.374569999999999     40.023849999999996
C      38.622399999999999     36.566519999999997     36.913749999999986
C      38.768200000000007     42.023299999999999     27.240649999999995
C      38.021030000000010     40.997619999999991     28.023550000000000
C      42.176030000000011     38.847650000000002     27.479549999999996
C      40.301990000000004     42.072699999999998     26.924450000000000
C      38.701210000000003     39.706479999999999     27.911349999999999
C      42.221250000000012     40.312129999999989     27.508249999999997
C      40.776940000000010     38.240829999999995     27.869249999999994
C      40.886460000000000     40.790439999999990     27.458449999999999
C      40.115410000000011     39.539589999999997     27.627749999999999
C      38.050150000000002     43.159599999999990     26.662250000000000
C      36.634500000000003     43.362299999999998     27.036049999999996
C      36.051330000000000     42.073599999999999     27.694049999999990
C      36.573930000000004     40.745480000000001     28.035949999999993
C      38.692079999999990     44.235199999999992     25.902650000000001
C      37.629110000000011     44.829299999999996     24.984150000000000
C      36.297470000000004     44.748199999999997     25.445850000000000
C      35.482190000000003     44.015899999999988     26.411749999999998
C      40.173240000000007     44.358699999999992     25.926849999999995
C      40.970750000000010     43.165599999999991     26.264249999999997
C      34.634083000000004     42.119999999999997     28.002749999999999
C      34.375731000000002     39.686819999999997     28.464349999999996
C      35.730360000000005     39.515839999999997     28.206649999999996
C      37.755250000000004     38.425439999999995     27.712049999999998
C      36.432169999999999     38.335859999999990     28.710850000000001
C      40.944850000000002     45.423599999999993     25.054049999999997
C      38.382390000000001     41.446199999999997     29.550049999999999
C      38.687690000000003     42.812499999999993     29.917449999999995
C      40.498829999999998     37.026049999999998     28.692149999999998
C      39.653850000000006     36.896429999999995     29.836050000000000
C      43.303150000000002     38.035669999999996     26.947949999999999
C      38.788100000000000     37.777449999999995     34.355549999999994
C      37.831980000000001     38.582679999999989     35.441649999999996
C      42.863350000000011     37.252689999999994     31.179749999999999
C      40.401150000000001     37.284739999999999     32.225449999999995
C      37.432870000000008     38.206129999999995     34.082149999999992
C      41.753860000000003     36.693950000000001     31.986149999999995
C      39.945719999999994     37.155119999999997     39.139049999999990
C      39.902780000000007     37.286619999999999     33.587350000000001
C      39.164700000000011     37.899920000000002     35.810149999999993
C      40.228160000000003     39.906749999999988     37.013549999999988
C      40.212780000000009     38.508469999999988     36.726449999999993
C      39.065960000000004     40.601189999999995     36.588049999999996
C      40.287300000000002     38.604449999999993     41.029349999999987
C      41.370390000000000     39.520439999999994     40.241450000000000
C      42.715850000000003     38.969310000000000     40.488749999999996
C      43.757870000000011     39.867539999999991     39.759049999999995
C      40.844750000000005     36.176420000000000     33.017249999999997
C      43.514279999999999     41.497299999999996     39.993449999999996
C      36.580440000000003     38.060299999999991     32.804449999999996
C      39.738150000000005     37.949109999999997     30.980049999999991
H      31.161249999999999     34.547820000000002     45.448390000000003
H      37.129910000000010     35.924090000000000     41.884260000000005
H      37.527340000000009     41.259899999999995     35.401949999999999
H      32.767250000000004     40.894010000000002     28.480049999999991
H      33.308550000000004     36.387419999999999     41.241150000000005
H      34.708354000000000     34.383459999999999     39.267349999999993
H      36.630150000000000     30.806000000000004     48.017810000000004
H      35.854600000000005     32.482129999999998     40.812149999999995
H      32.551650000000009     35.811459999999990     43.708260000000003
H      31.495650000000012     33.508139999999997     48.111510000000003
H      36.061060000000005     30.152099999999990     50.127859999999998
H      34.950006999999999     29.963500000000010     51.777950000000004
H      32.489049999999992     31.424982999999997     51.899650000000001
H      31.624849999999999     32.247090000000000     49.736050000000006
H      35.334620000000001     30.774300000000004     43.578750000000014
H      36.763430000000000     31.522259999999989     43.281450000000000
H      38.619570000000010     31.653363999999996     44.799640000000004
H      38.230789999999999     31.629934999999996     46.628150000000005
H      38.677779999999998     30.113899999999994     45.643370000000004
H      38.373060000000009     33.894529999999996     40.687949999999994
H      38.981520000000003     39.061610000000002     39.337549999999986
H      38.066479999999999     35.974669999999996     36.205149999999996
H      39.699530000000010     34.547089999999997     38.562950000000001
H      43.409080000000003     37.892989999999998     31.857550000000003
H      43.132790000000000     40.847759999999994     27.507549999999988
H      37.883400000000009     45.625599999999991     24.100349999999999
H      35.563299999999998     45.160499999999999     24.865649999999995
H      34.494094000000004     43.954400000000000     26.328649999999996
H      42.076250000000002     43.191399999999987     26.139049999999997
H      34.064190100000005     43.102599999999995     27.696449999999999
H      33.678649999999990     38.882379999999998     28.858049999999999
H      38.329260000000005     37.489269999999998     28.017649999999996
H      37.337609999999998     38.347220000000000     26.681950000000001
H      35.959379999999996     37.277999999999999     28.533850000000001
H      36.877560000000003     38.767789999999998     29.627449999999989
H      38.058500000000009     40.816290000000002     30.441149999999993
H      38.657510000000002     42.992799999999995     30.905450000000002
H      38.549820000000011     43.705900000000000     29.292349999999999
H      41.551850000000002     36.375940000000000     28.852750000000000
H      40.225209999999990     36.336590000000001     27.821549999999995
H      40.395070000000004     36.052740000000000     30.146349999999998
H      38.522719999999993     36.572109999999995     29.840249999999990
H      44.127750000000006     38.504930000000002     26.648449999999990
H      43.748460000000009     36.566949999999991     30.948349999999998
H      40.678190000000001     37.390589999999996     38.415849999999992
H      41.074970000000008     40.497369999999997     37.855649999999990
H      41.166440000000009     38.060659999999999     36.986449999999998
H      39.341110000000000     41.672300000000000     36.926249999999996
H      40.827050000000000     37.905009999999997     41.745305999999999
H      39.786910000000006     39.215939999999996     41.904076000000003
H      40.921720000000008     39.678529999999995     39.260249999999999
H      41.368910000000000     40.567619999999998     40.788049999999991
H      43.117180000000005     38.014679999999991     39.982649999999992
H      42.878430000000009     38.779139999999998     41.515442999999998
H      43.694239999999994     39.473729999999996     38.820449999999987
H      44.838750000000005     39.728180000000002     40.183849999999993
H      40.358190000000008     35.213429999999995     32.672249999999984
H      42.527380000000008     37.872390000000003     30.290149999999997
H      44.579350000000005     41.948099999999997     39.750850000000000
H      43.512039999999999     41.796700000000001     41.098449999999993
H      42.521039999999999     42.051899999999989     39.853650000000002
H      35.608580000000003     38.116989999999994     32.917850000000001
H      36.728510000000000     36.954279999999997     32.611549999999994
H      36.958340000000007     38.982729999999997     32.212649999999989
H      38.761780000000002     38.368229999999997     31.058849999999993
H      40.430990000000008     38.794480000000000     30.780950000000004
N      33.969050000000010     35.398760000000003     41.315749999999994
N      32.036949999999990     34.009749999999990     46.060710000000000
N      33.876449999999991     40.960479999999997     28.302849999999999
N      37.959429999999998     40.234359999999995     35.922249999999984
O      42.509709999999998     35.671810000000001     27.147849999999998
O      34.501802999999995     37.686479999999996     38.246849999999988
O      36.542150000000007     39.871459999999999     43.892150000000001
O      41.498280000000008     46.036499999999990     24.276949999999999
