63

C      42.333649999999999     31.518999999999991     36.330374999999989
C      38.735150000000004     39.454200000000000     37.912034999999989
C      39.736350000000002     39.389600000000002     39.078535000000002
C      38.559550000000002     43.927500000000002     39.506335000000007
C      38.108850000000004     40.720799999999997     37.495535000000004
C      39.858650000000004     40.463400000000000     40.027134999999987
C      37.878750000000004     43.166299999999993     38.357335000000006
C      39.162850000000006     42.903300000000002     40.294534999999996
C      38.443950000000001     41.797999999999995     38.324735000000004
C      39.254950000000008     41.668199999999999     39.677934999999991
C      38.583250000000007     38.182600000000001     37.099834999999999
C      39.478950000000005     37.003300000000003     37.561834999999988
C      40.445050000000002     37.170599999999993     38.636935000000008
C      40.674450000000007     38.353299999999990     39.467034999999996
C      37.483249999999998     38.248699999999999     36.171165000000002
C      37.277650000000008     36.896700000000003     35.566344999999998
C      38.060050000000004     35.824500000000000     35.863115000000008
C      39.297150000000002     35.859199999999994     36.704734999999999
C      36.761250000000004     39.438099999999991     35.524884999999998
C      37.245550000000009     40.738799999999998     36.192274999999995
C      37.302350000000004     42.168399999999991     35.843215000000001
C      37.028250000000007     43.194600000000001     37.153234999999995
C      40.942950000000003     40.584199999999996     41.328035000000000
C      41.880250000000004     39.420399999999994     41.389034999999993
C      41.550650000000005     38.329699999999995     40.532534999999996
C      41.267450000000004     35.975200000000001     38.898634999999999
C      41.327350000000003     34.695599999999999     37.714934999999997
C      40.061149999999998     34.619399999999992     36.976735000000005
C      35.808650000000000     42.470999999999997     37.635235000000009
C      41.494150000000005     33.325699999999991     38.377234999999999
C      34.655250000000002     43.220199999999998     38.196534999999997
C      42.228550000000006     35.815899999999999     37.457534999999993
C      33.553050000000006     42.038800000000002     38.202735000000004
C      42.099850000000004     31.785099999999993     37.777834999999996
H      35.558450000000001     40.028799999999997     33.877165000000005
H      43.256349999999998     35.480599999999995     37.674435000000003
H      38.247550000000004     44.921399999999998     39.798135000000002
H      39.714450000000006     43.130599999999994     41.290935000000005
H      36.453350000000000     36.840399999999995     34.781485000000004
H      37.929350000000007     34.862099999999991     35.310744999999997
H      38.550250000000005     42.682699999999997     35.513234999999995
H      36.789150000000006     42.483200000000004     34.924445000000006
H      37.226250000000007     44.043499999999995     36.597634999999997
H      41.482050000000008     41.493599999999994     41.008734999999987
H      42.831350000000008     39.305000000000000     41.853934999999993
H      40.373050000000006     40.923099999999998     42.122834999999995
H      42.061150000000005     37.312399999999997     40.835335000000001
H      42.058450000000008     36.143500000000003     39.784835000000001
H      39.240850000000009     33.945100000000004     36.781434999999988
H      35.255850000000002     42.142499999999991     36.788935000000009
H      36.108150000000002     41.904400000000003     38.483034999999987
H      42.280850000000008     33.279899999999998     39.225534999999994
H      40.673550000000006     33.146599999999992     39.072235000000006
H      34.425550000000001     44.176399999999994     37.761234999999999
H      34.908549999999998     43.631000000000000     39.303635000000000
H      41.855550000000008     36.456000000000003     36.624035000000006
H      33.805450000000000     41.128099999999996     38.431134999999998
H      32.743650000000002     42.229799999999997     38.905734999999993
H      32.984950000000005     42.036999999999999     37.245734999999996
H      41.297350000000009     31.078600000000002     38.132334999999998
H      43.101950000000002     31.658200000000001     38.366534999999999
O      43.133850000000002     32.229900000000001     35.950685000000007
O      35.907049999999998     39.244500000000002     34.586745000000008
