14

C      36.295050000000003     36.795549999999992     37.041499999999992
C      36.889450000000011     36.844650000000001     38.485999999999990
C      37.686850000000014     36.346750000000000     37.285800000000002
C      37.276150000000008     37.698549999999997     39.550300000000000
C      37.193150000000003     38.585650000000001     40.595599999999990
C      37.995750000000008     37.253450000000001     40.533400000000000
C      37.104050000000008     36.415250000000000     35.935200000000002
C      38.889949999999999     37.338149999999999     37.368999999999993
H      36.535650000000011     39.653250000000000     40.759999999999991
H      38.848550000000003     37.731149999999985     41.236800000000002
H      37.161150000000013     36.416250000000005     34.763199999999998
H      39.704950000000004     37.683249999999987     36.586800000000004
H      38.444550000000007     38.507749999999987     37.504300000000001
H      39.634350000000005     37.066549999999992     38.149600000000000
