5

C      38.221054999999993     38.230624999999989     37.951849999999993
H      39.037855000000008     38.097085000000007     38.800049999999999
H      38.684854999999999     38.824034999999995     37.199950000000001
H      38.100255000000004     37.175965000000005     37.331049999999998
H      36.962144999999992     38.347854999999996     38.322449999999989
