5

C      38.207900000000002     38.401750000000000     38.086599999999997
H      38.765000000000001     38.707650000000001     38.885700000000000
H      38.466800000000006     38.654849999999996     37.114300000000000
H      38.312499999999993     37.292349999999999     37.939700000000002
H      37.234999999999999     38.636550000000007     38.290700000000001
