8

C      39.214299999999994     37.652949999999990     37.042850000000001
C      37.024500000000003     38.032649999999990     38.439049999999995
C      37.613199999999999     38.336449999999999     37.177050000000008
H      36.638500000000001     38.786349999999999     36.671850000000006
H      38.031799999999997     39.340850000000003     37.170450000000002
H      39.275100000000002     38.347749999999991     37.931650000000005
O      39.572499999999998     36.659149999999997     36.662649999999999
O      36.427500000000002     37.736549999999994     39.337350000000001
