86

C      39.298850000000002     36.438875999999986     40.085200000000000
C      37.895450000000011     36.727556999999997     40.148099999999999
C      40.775649999999999     40.621769999999998     38.429199999999994
C      38.315249999999992     40.577599999999997     39.405500000000004
C      40.351650000000006     37.427829999999993     39.552700000000002
C      37.371549999999999     38.115229999999997     39.981700000000004
C      40.922350000000009     39.674269999999993     39.532600000000002
C      39.447850000000003     41.175939999999997     38.595500000000001
C      39.685850000000002     38.688929999999999     39.707499999999996
C      38.316650000000010     39.155969999999989     39.643200000000007
C      39.493150000000000     35.023640000000000     40.426699999999997
C      38.593950000000007     33.847639999999984     40.444699999999997
C      37.120650000000012     34.284939999999999     40.552899999999994
C      36.941250000000011     35.690639999999995     40.450199999999995
C      41.687150000000003     41.212409999999998     37.421900000000008
C      42.781850000000006     41.639769999999992     38.299099999999996
C      35.758650000000003     40.670049999999996     39.929400000000001
C      36.847950000000012     41.113349999999997     39.479399999999998
C      41.014550000000000     34.642139999999976     40.531300000000002
C      41.661450000000002     32.284739999999999     41.783599999999993
C      40.734750000000005     33.269939999999991     41.100899999999996
C      39.461550000000003     32.643239999999999     40.800899999999999
C      41.897649999999999     35.687440000000002     39.970399999999998
C      41.788250000000005     37.167051999999998     39.742400000000004
C      42.987350000000006     38.138179999999998     39.457300000000004
C      42.134349999999998     39.243869999999994     40.400400000000005
C      36.078950000000006     42.178009999999993     40.281899999999993
C      36.899550000000005     43.751949999999987     34.539299999999997
C      34.964650000000006     39.774069999999988     37.561300000000003
C      34.574350000000010     38.194249999999997     35.408699999999996
C      41.924049999999994     39.095059999999997     35.557699999999997
C      36.158650000000009     40.214059999999989     36.846699999999998
C      36.898750000000007     39.570879999999995     35.733400000000003
C      39.290649999999999     37.852789999999992     35.800200000000004
C      43.106050000000010     39.283859999999990     36.105000000000004
C      38.495950000000008     37.167787999999994     36.698899999999995
C      38.071849999999998     38.526419999999987     36.141599999999997
C      33.896250000000009     38.821609999999986     37.730300000000000
C      33.730250000000012     37.926699999999997     36.567999999999998
C      35.563450000000003     37.461569999999995     34.756299999999996
C      35.540950000000009     38.969579999999993     34.800300000000007
C      35.364850000000004     41.251659999999987     37.219300000000004
C      36.335149999999999     41.904659999999993     36.414600000000007
C      32.601150000000004     39.345549999999989     38.595100000000002
C      41.987650000000002     39.993899999999996     36.702300000000008
C      35.856150000000000     42.578299999999999     34.971800000000002
C      36.146350000000012     36.032739999999983     34.739899999999992
C      34.509349999999998     37.570329999999998     38.139099999999999
H      36.410250000000005     38.539789999999996     39.727500000000006
H      39.072050000000004     42.083109999999998     38.065899999999999
H      36.236850000000004     33.670739999999988     40.774400000000000
H      35.886050000000012     36.097540000000009     40.614199999999997
H      41.126450000000006     41.895969999999998     36.727899999999991
H      35.360550000000003     39.724139999999991     39.702100000000002
H      39.126850000000005     31.640240000000013     41.057800000000000
H      42.902850000000001     35.426739999999988     39.970900000000000
H      42.975549999999998     38.824679999999994     38.386200000000002
H      43.946749999999994     37.888679999999994     39.948899999999995
H      42.759050000000002     40.236009999999993     40.500500000000002
H      41.899350000000013     38.743709999999993     41.377499999999998
H      40.456450000000004     38.579399999999993     34.157100000000000
H      35.227150000000009     35.482139999999980     34.310500000000005
H      37.475949999999997     43.714959999999998     33.520700000000005
H      36.033250000000010     44.359759999999987     34.266700000000000
H      37.493750000000006     44.149279999999997     35.487899999999996
H      39.006150000000005     36.225940000000008     36.994900000000001
H      44.065049999999999     39.127519999999997     36.215599999999995
H      32.647750000000002     37.437119999999993     36.592200000000005
H      35.650450000000006     39.399149999999992     33.823200000000000
H      34.909050000000008     41.948089999999993     37.864499999999992
H      37.008850000000010     42.510719999999992     37.015600000000006
H      32.020150000000001     38.436609999999988     38.817300000000003
H      31.934950000000004     39.855509999999988     37.877700000000004
H      34.992750000000001     43.163409999999992     35.058000000000007
H      35.503850000000000     41.625099999999996     34.595900000000000
H      36.651350000000008     35.695039999999999     35.750900000000001
H      36.920349999999999     35.846739999999983     33.956500000000005
H      35.618549999999999     37.385569999999994     38.231099999999998
H      33.835550000000012     36.460149999999999     38.742499999999993
H      37.509750000000011     40.178369999999994     35.225600000000000
H      40.938250000000011     36.837486999999996     34.691000000000003
H      32.789150000000006     39.947469999999996     39.604100000000003
N      40.888049999999993     37.902949999999990     34.935100000000006
O      35.463050000000010     43.237399999999994     40.176999999999992
O      42.393550000000005     31.799039999999991     42.479299999999995
O      43.225350000000006     42.023559999999989     39.284499999999994
