29

C      37.387630000000001     39.533100000000005     39.947414999999992
C      38.473210000000002     40.045699999999997     40.860084999999998
C      39.407400000000003     37.788100000000000     40.441924999999991
C      37.093810000000005     39.298400000000001     38.464054999999995
C      38.339869999999998     37.236500000000007     39.636265000000002
C      37.272330000000004     37.198499999999996     35.552894999999999
C      38.791190000000007     36.092100000000002     38.803195000000002
C      37.212510000000009     38.131500000000003     39.331004999999990
C      39.643720000000009     36.453400000000002     39.634185000000002
C      37.639350000000007     40.072299999999998     37.356195000000007
C      38.652010000000004     39.190699999999993     36.545094999999989
C      37.600440000000006     38.501400000000004     35.450295000000004
C      39.480660000000007     39.173599999999993     40.986665000000002
C      38.306120000000000     41.254700000000000     37.873381999999999
H      40.399450000000002     39.488500000000002     41.587705000000000
H      38.557960000000001     33.820400000000006     38.127298999999994
H      38.734890000000000     41.111900000000006     41.247594999999997
H      36.608813000000005     40.175699999999992     36.945594999999997
H      39.444180000000003     39.603899999999996     35.947494999999996
H      38.948020000000007     38.135900000000007     37.085394999999991
H      36.613579000000009     38.943600000000004     35.837794999999986
H      38.437060000000010     42.179599999999994     37.099495000000005
H      39.437649999999998     40.971199999999996     37.814310999999996
H      37.896419999999999     41.594999999999999     38.894754999999996
H      37.536460000000005     34.503100000000003     37.539853000000001
H      36.650893000000011     35.852599999999995     34.412294999999993
H      35.600549999999998     35.775300000000001     35.938395000000007
N      36.771640000000005     35.945000000000007     35.491294999999994
O      38.521440000000005     35.121099999999998     37.713146000000002
