57

C      38.780550000000005     35.621604999999988     41.569449999999989
C      39.336649999999992     36.719905000000004     42.396549999999991
C      37.706250000000004     35.584205000000004     40.473149999999990
C      39.009450000000008     39.221804999999996     42.698650000000001
C      36.908550000000012     39.087304999999994     35.519749999999995
C      38.744450000000001     40.448804999999993     42.079849999999993
C      36.685650000000003     40.310904999999998     36.333249999999992
C      36.498850000000012     41.913755000000002     38.071050000000000
C      37.448250000000009     36.427204999999994     36.316549999999992
C      37.361049999999999     35.730704999999993     37.565849999999998
C      38.717350000000003     37.991104999999997     41.904449999999997
C      37.345750000000002     37.906505000000003     36.314849999999993
C      38.107750000000003     40.902129000000009     40.808650000000000
C      37.046650000000007     40.604204999999993     37.886649999999989
C      37.604250000000000     37.012704999999997     39.842749999999995
C      37.437749999999994     36.935404999999989     38.411149999999992
C      38.061650000000007     38.218804999999989     40.578749999999999
C      37.706650000000003     38.237905000000005     37.825549999999993
C      37.769650000000006     39.674605000000007     40.107649999999992
C      37.623450000000012     39.482704999999996     38.617849999999990
C      39.015950000000011     34.337505000000000     42.201549999999997
C      39.808049999999994     33.945304999999998     43.345450000000000
C      40.356450000000002     36.353304999999999     43.430849999999992
C      40.737150000000007     35.010905000000001     43.856349999999992
C      36.236550000000001     39.576404999999994     34.254249999999992
C      36.040250000000007     40.955824000000007     33.621649999999995
C      35.723350000000003     42.036695000000009     34.566649999999996
C      35.994150000000005     41.527109000000003     35.895049999999998
C      35.634250000000002     41.381532000000007     32.270349999999993
C      35.403850000000013     39.836704999999995     33.019149999999996
C      36.011050000000004     42.621765000000011     36.900049999999993
C      36.591950000000004     42.508805000000002     39.340449999999990
C      37.249350000000000     34.502305000000000     39.713149999999999
C      37.696650000000012     34.401204999999997     38.351149999999990
C      37.012850000000007     33.333504999999995     37.430349999999990
H      39.177050000000001     39.223904999999995     43.740649999999988
H      38.515450000000001     41.401155000000010     42.611149999999995
H      38.399450000000009     33.509004999999995     41.675749999999994
H      40.010750000000009     32.988504999999996     43.725249999999988
H      40.715949999999999     37.099504999999994     44.076749999999990
H      35.173150000000000     42.857345000000002     34.359749999999991
H      34.312249999999999     39.726805000000006     33.325249999999997
H      36.475450000000002     41.401939000000006     31.455549999999999
H      37.122650000000000     35.979004999999994     35.389049999999997
H      34.632650000000005     41.619875999999998     32.219849999999994
H      36.314050000000002     43.332715000000007     39.226849999999999
H      35.916850000000004     43.748195000000003     36.741450000000000
H      35.777350000000006     42.275155000000012     39.994850000000000
H      39.092150000000011     34.229604999999999     38.148649999999989
H      37.150750000000009     33.554205000000003     40.289049999999989
H      37.691850000000002     33.179004999999997     36.105649999999997
H      37.137150000000013     32.251804999999997     37.690950000000001
H      35.786750000000005     33.446204999999999     37.105649999999997
H      37.935650000000003     43.098765000000007     40.878149999999991
H      38.952750000000002     42.712505000000007     39.536249999999995
N      38.097349999999999     42.309275000000007     40.186349999999990
O      41.687750000000001     34.625404999999994     44.544449999999998
