6

C      37.597399999999993     38.660349999999994     38.149549999999991
C      38.310600000000001     37.526750000000007     37.818350000000002
H      37.689000000000000     39.231750000000005     38.957149999999999
H      36.784799999999997     38.817149999999998     37.389150000000001
H      37.810700000000004     36.768249999999995     37.042850000000001
H      39.215200000000003     37.329350000000005     38.446849999999991
