5

C      37.914249999999996     37.792909999999992     37.922399999999996
H      37.281050000000008     37.314399999999999     37.263099999999994
H      38.278849999999991     38.881920000000001     37.820899999999995
H      37.136750000000006     37.334889999999994     38.736900000000006
H      38.863249999999994     37.118079999999999     37.864599999999996
