61

C      37.185099999999998     37.037399999999991     38.376580000000004
C      37.372000000000000     36.052799999999998     37.371120000000012
C      37.008000000000003     40.396999999999998     36.318140000000007
C      37.247700000000009     40.353999999999999     34.894963000000011
C      36.654400000000003     38.468299999999999     38.231240000000007
C      37.243300000000005     36.597200000000001     35.940870000000011
C      35.368900000000004     38.699999999999996     39.020389999999999
C      37.112100000000005     38.910899999999998     34.573610000000009
C      37.026700000000005     39.004399999999997     36.839550000000010
C      36.899700000000003     38.034300000000002     35.698060000000005
C      37.648899999999998     36.620600000000003     39.740850000000009
C      38.058500000000009     35.198200000000000     39.953770000000006
C      38.374099999999999     34.192700000000002     38.871020000000009
C      37.845300000000009     34.638600000000004     37.560760000000009
C      36.908799999999999     41.816499999999998     36.816130000000008
C      36.885100000000001     43.056200000000004     36.008490000000009
C      36.965100000000007     42.733800000000002     34.555623000000011
C      37.353400000000008     41.424599999999991     33.912310000000012
C      37.626300000000001     37.497799999999991     40.879420000000003
C      38.204800000000006     36.961399999999990     42.205330000000011
C      38.955599999999997     35.791599999999995     42.176080000000006
C      38.821200000000005     34.807600000000001     41.104340000000008
C      36.749200000000002     39.434100000000001     39.565960000000011
C      37.398900000000005     38.957599999999999     40.915460000000003
C      38.592800000000004     39.889499999999998     41.023220000000002
C      39.966999999999999     39.068599999999996     41.521400000000000
C      40.499500000000005     38.637599999999999     40.037690000000005
C      36.112900000000003     38.994399999999992     41.832060000000006
C      39.273600000000002     33.175800000000002     39.563820000000007
C      36.157200000000003     35.935099999999998     35.057402000000010
C      36.633000000000003     35.665300000000002     33.484710000000007
H      38.272699999999993     36.160499999999999     35.607990000000008
H      37.197499999999998     38.397100000000002     33.532310000000003
H      37.748800000000003     33.972299999999997     36.673690000000008
H      36.575000000000003     42.338899999999995     37.868560000000002
H      36.230000000000004     43.761000000000003     36.546840000000010
H      36.694100000000006     43.680899999999994     33.941109999999995
H      37.613400000000006     41.255299999999998     32.713509999999999
H      37.868599999999994     37.313600000000001     43.139070000000011
H      39.346600000000009     35.552100000000003     43.286490000000001
H      36.827200000000005     40.497799999999991     39.383330000000008
H      38.938200000000009     40.279899999999991     40.113070000000008
H      38.352900000000005     41.005900000000004     41.402450000000002
H      39.855100000000007     38.323999999999991     42.279250000000005
H      40.680000000000007     39.551699999999997     42.227480000000007
H      39.844000000000001     37.738999999999997     39.856540000000010
H      41.446899999999999     38.140700000000002     39.884700000000009
H      40.219000000000008     39.385099999999994     39.209750000000007
H      35.515600000000006     38.365600000000001     41.350430000000010
H      35.791899999999998     39.988899999999994     42.056269999999998
H      36.416900000000005     38.495200000000004     42.618550000000006
H      40.125500000000002     33.431099999999994     41.926640000000006
H      40.278000000000006     33.363799999999998     38.979100000000010
H      38.747899999999994     32.238999999999997     39.409680000000009
H      36.151400000000010     34.988999999999997     35.330020000000012
H      35.305900000000008     36.768900000000002     35.072380000000003
H      36.927599999999998     36.508400000000002     32.921410000000009
H      36.015300000000003     34.974100000000000     32.853410000000004
H      37.614899999999999     35.107099999999996     33.727310000000003
O      34.553100000000001     37.918900000000001     39.476890000000012
O      39.228500000000004     33.497999999999998     41.221760000000010
