8

C      38.700449999999989     38.302450000000000     37.871749999999992
C      37.052349999999990     38.111050000000006     38.116450000000000
H      39.259550000000004     37.310050000000004     38.029249999999998
H      39.011650000000003     38.682150000000000     36.870750000000001
H      36.988450000000000     37.092550000000003     37.412249999999993
H      36.632149999999996     37.684650000000005     39.129249999999999
H      36.409350000000003     38.907449999999997     37.761150000000001
H      39.590649999999997     38.872450000000001     38.444250000000004
