6

C      37.397649999999999     38.072752499999993     37.677199999999999
C      38.578049999999990     37.840652500000004     38.317000000000000
H      36.950749999999999     39.167647500000001     37.461299999999994
H      36.866550000000004     37.211552499999996     37.415399999999998
H      39.133449999999996     36.832352499999999     38.584600000000002
H      39.120350000000002     38.757252499999993     38.539200000000001
