43

C      38.452949999999994     37.079249999999988     39.474499999999992
C      37.559849999999997     38.355149999999995     38.751800000000003
C      37.326549999999997     35.348250000000000     35.177800000000005
C      39.361350000000002     36.636749999999999     38.225999999999999
C      36.378750000000004     37.756450000000001     37.884500000000003
C      38.619250000000001     35.695150000000005     35.775599999999997
C      36.215049999999998     36.034650000000006     35.983699999999999
C      38.510750000000002     36.571149999999996     37.088600000000000
C      37.033949999999997     36.788050000000005     37.135700000000000
C      37.956249999999997     38.203449999999997     40.203299999999999
C      37.611550000000001     39.465949999999999     40.821300000000008
C      38.946750000000002     37.264950000000006     41.030499999999989
C      38.175750000000001     40.678749999999994     41.656399999999991
C      37.300150000000002     41.432449999999989     42.501199999999997
C      36.271149999999999     40.663350000000001     42.471699999999998
C      36.231149999999992     39.656950000000002     41.314599999999999
C      40.671049999999994     36.047449999999998     38.225500000000011
C      41.003349999999998     35.388250000000006     36.894199999999998
C      40.122550000000004     35.501950000000001     35.723900000000000
C      35.084049999999998     36.497049999999994     35.251400000000004
C      35.315350000000002     36.931249999999999     33.432299999999998
C      35.919449999999998     34.544550000000008     36.019599999999997
H      39.701149999999991     37.891250000000007     41.466999999999999
H      38.516849999999998     40.456350000000008     38.788399999999996
H      37.341850000000001     35.462650000000004     34.072500000000005
H      35.482849999999999     38.246450000000003     38.056400000000011
H      38.672249999999998     36.438449999999989     41.707900000000009
H      37.325049999999997     42.083649999999999     43.547100000000000
H      35.521250000000002     40.788950000000000     43.122699999999995
H      35.331149999999994     39.058050000000001     41.425899999999999
H      41.346950000000000     35.951349999999998     39.064500000000010
H      41.862549999999999     34.950650000000003     36.616300000000010
H      40.437750000000001     35.355750000000008     34.775199999999998
H      34.137450000000001     37.012450000000001     36.134700000000009
H      34.534749999999995     35.769950000000001     34.682000000000002
H      34.363350000000004     37.413450000000005     33.232799999999997
H      35.154350000000001     36.227950000000000     32.452900000000000
H      36.018749999999990     37.677049999999994     33.363399999999999
H      36.333950000000002     33.916350000000001     36.712400000000002
H      35.288850000000004     33.942950000000003     35.211800000000011
H      37.738450000000000     40.157450000000004     37.093699999999998
N      37.951250000000002     39.771250000000002     38.132300000000001
O      39.343950000000000     41.044249999999998     41.348799999999997
