6

C      38.456149999999994     37.867549999999994     37.453049999999990
C      37.562649999999998     38.263449999999999     38.429050000000004
H      39.503750000000004     38.030049999999989     37.554450000000003
H      36.496249999999996     38.256249999999994     38.084050000000005
H      37.920349999999999     38.679049999999997     39.386349999999993
H      38.117350000000002     37.320950000000003     36.613650000000007
