5

C      38.118349999999992     38.362149999999986     38.046850000000006
H      38.741149999999998     38.662149999999997     39.028250000000000
H      38.531649999999992     37.269949999999994     38.196849999999998
H      38.361950000000007     38.730050000000006     36.971750000000000
H      37.258850000000002     38.471750000000000     38.588549999999998
