5

C      38.039549999999998     38.088499999999996     37.656800000000004
H      38.765150000000006     38.090700000000005     36.993099999999998
H      38.254050000000007     38.432500000000005     39.006900000000002
H      37.234849999999994     38.789400000000001     37.213000000000008
H      37.566649999999996     37.210599999999999     37.737000000000009
