7

C      37.999299999999991     38.643799999999999     37.450449999999996
C      38.267199999999988     37.562200000000004     38.526150000000001
H      37.381699999999995     37.326900000000002     39.088449999999995
H      38.896999999999991     36.728899999999996     38.279550000000000
H      38.659599999999998     38.931900000000006     36.666550000000001
H      39.034000000000006     38.012900000000002     39.333449999999999
O      36.965999999999994     39.271100000000004     37.616250000000001
