46

C      38.214150000000004     39.033244999999994     36.260400000000004
C      37.423450000000003     35.980406000000002     36.737200000000009
C      33.811250000000001     37.906334999999999     37.882300000000015
C      39.508449999999996     38.569535000000002     36.300600000000010
C      35.686650000000000     40.434955000000002     36.273100000000014
C      35.100050000000010     38.669905000000000     38.027300000000011
C      33.769350000000003     38.885784999999998     38.878600000000013
C      36.681850000000011     39.254265000000004     36.158200000000015
C      35.616450000000000     39.250205000000001     36.982100000000010
C      38.769750000000002     38.401784999999997     37.673700000000011
C      38.683850000000007     36.811585000000001     37.415700000000015
C      37.535250000000005     36.203277999999997     38.251500000000007
C      41.076150000000013     37.001035000000002     37.375800000000012
C      39.958850000000012     36.145654000000000     37.427700000000016
C      36.632350000000002     35.993724000000000     39.344300000000011
C      41.877250000000004     38.392684999999993     37.155500000000004
C      42.622650000000007     37.269295000000000     37.236300000000007
C      36.785750000000007     36.271657999999995     40.813400000000009
C      43.398949999999999     38.465605000000004     37.790600000000012
C      32.518050000000002     38.943645000000004     37.948800000000013
C      36.780450000000002     35.504674999999992     35.726400000000012
C      34.023450000000011     38.338135000000001     40.302000000000014
C      39.244550000000004     38.242514999999990     34.909400000000012
C      40.954850000000008     39.396044999999994     36.411100000000012
C      43.066950000000006     36.298707000000000     35.887900000000009
H      42.769450000000006     36.346086000000000     34.751300000000015
H      35.964350000000010     35.141774999999996     39.040800000000011
H      38.231850000000009     39.148845000000001     38.354600000000005
H      33.778650000000013     37.048585000000003     37.152100000000004
H      35.196850000000012     40.948725000000003     35.406000000000013
H      39.855649999999997     35.084274999999991     37.210800000000006
H      44.422950000000000     38.585234999999997     37.306600000000003
H      43.132249999999999     38.978985000000002     38.701000000000015
H      32.387750000000011     39.735945000000001     37.251800000000003
H      31.577050000000003     38.695005000000002     38.403000000000006
H      35.616550000000004     35.051274999999997     35.868600000000015
H      37.399850000000001     35.482374999999998     34.775800000000011
H      35.008650000000003     37.989175000000003     40.643600000000013
H      33.086850000000013     38.567185000000002     41.432100000000013
H      33.451650000000001     37.468175000000002     40.599700000000006
H      39.866849999999999     38.897975000000002     34.118700000000004
H      38.349250000000012     37.920814999999997     34.546000000000014
H      40.426249999999996     40.243465000000000     36.903400000000005
H      41.605750000000000     39.815625000000004     35.759700000000009
O      37.048450000000003     36.573345000000003     41.881300000000003
O      44.144750000000002     36.663415000000001     35.924800000000012
