5

C      37.702999999999989     37.720299999999995     37.917649999999988
H      38.876199999999997     38.048400000000001     38.059249999999992
H      37.123800000000003     37.501400000000004     39.002049999999997
H      37.340699999999998     37.210899999999995     36.997950000000003
H      37.469000000000008     38.789100000000005     37.810749999999999
