61

C      37.576299999999989     35.624044999999995     35.223649999999992
C      38.886699999999990     36.530079999999998     35.340049999999991
C      39.764499999999998     42.035889999999995     40.897744000000003
C      36.754300000000001     35.228391999999999     36.419649999999990
C      38.989999999999995     41.837100000000007     42.101300000000009
C      40.006900000000002     40.903659999999988     39.948350000000005
C      39.053899999999999     37.123869999999997     36.636150000000001
C      37.245900000000006     40.333920000000006     43.341690000000014
C      36.515699999999995     39.149739999999994     43.486850000000004
C      34.984200000000001     37.376319999999993     41.937270000000012
C      35.001199999999997     36.679749999999999     40.609626000000006
C      35.679100000000005     35.995356999999998     38.495849999999990
C      39.093599999999995     38.785939999999997     39.016350000000003
C      38.127899999999997     40.668740000000000     42.155880000000010
C      36.175200000000004     38.335400000000007     42.334210000000013
C      36.787999999999997     36.057180000000002     37.637550000000005
C      39.036899999999989     39.859980000000007     40.189550000000011
C      36.017800000000008     36.766620000000003     39.634350000000012
C      38.003099999999989     36.950680000000006     37.749350000000007
C      38.135300000000001     37.831680000000006     38.884350000000012
C      38.014699999999991     39.610020000000006     41.242136000000016
C      37.086500000000001     37.667049999999989     39.940450000000013
C      36.883399999999995     38.598329999999990     41.106592000000006
C      40.255800000000008     37.941329999999994     36.821450000000013
C      40.271799999999999     38.801139999999990     37.974849999999989
C      41.253100000000003     39.877749999999992     38.294849999999997
C      41.216799999999992     41.117609999999999     39.117250000000013
C      37.304599999999994     35.285235000000000     33.820249999999987
C      38.280699999999996     35.404516999999998     32.806750000000008
C      39.597099999999998     36.049828000000005     33.045050000000003
C      39.912499999999994     36.500370000000004     34.255350000000007
C      41.324399999999997     36.994229999999988     34.495650000000012
C      41.612099999999998     37.634159999999994     36.046950000000010
C      35.752099999999999     33.906480000000002     36.445149999999998
C      35.704999999999998     33.734880000000004     34.943750000000009
C      35.762699999999995     34.835679999999996     34.002750000000006
C      34.479700000000008     35.089832900000005     38.991449999999986
C      34.662700000000001     36.003378999999995     34.198449999999994
H      40.162499999999994     42.982420000000005     40.681203000000011
H      38.800100000000000     42.787869999999998     42.587060000000008
H      37.681500000000000     40.810199999999995     44.193750000000009
H      35.877300000000005     38.818730000000002     44.199449999999999
H      34.139300000000006     37.080689999999990     42.664270000000016
H      33.923000000000002     36.256910000000005     40.980196000000007
H      42.276700000000005     39.548330000000007     37.926549999999992
H      41.880299999999991     41.841049999999996     39.403250000000014
H      38.140799999999999     35.276877999999996     31.800549999999998
H      40.305900000000008     35.925450999999995     32.263350000000003
H      41.972700000000003     36.097369999999998     34.552850000000007
H      41.715799999999987     37.531670000000005     33.699649999999991
H      42.263800000000003     36.969899999999996     36.854450000000014
H      42.159099999999995     38.645530000000008     35.750449999999987
H      34.774900000000002     34.330979999999997     37.010850000000005
H      36.321899999999999     33.017579999999995     37.045849999999987
H      36.588999999999999     33.204979999999992     34.709150000000008
H      34.947199999999995     33.022279999999995     34.830850000000012
H      35.506799999999998     34.156880000000001     33.135750000000002
H      34.181100000000001     35.781420999999995     35.197750000000013
H      35.309399999999997     36.898190000000000     34.362050000000011
H      33.961099999999988     36.599489999999989     33.478350000000006
O      33.723299999999995     34.345079999999996     39.223349999999996
