51

C      38.149199999999993     38.061049999999994     37.173449999999995
C      37.813299999999998     39.284850000000006     36.672750000000001
C      39.632000000000005     36.569649999999996     41.483449999999998
C      39.041299999999993     37.960449999999994     38.282050000000005
C      38.584599999999995     40.496849999999995     36.903449999999999
C      40.410799999999995     37.614750000000001     40.754550000000002
C      39.660600000000002     39.260949999999994     38.877849999999995
C      39.466800000000006     40.416349999999994     38.000950000000003
C      37.314300000000003     36.765850000000000     36.772950000000002
C      36.503100000000003     36.725650000000002     35.628350000000005
C      36.203099999999992     38.090649999999997     34.971350000000001
C      36.762699999999995     39.181150000000002     35.760050000000000
C      37.453599999999994     35.469750000000005     37.522750000000002
C      36.756600000000006     34.092149999999990     37.194650000000003
C      35.983900000000006     34.130949999999999     36.048450000000003
C      35.837899999999991     35.464249999999993     35.367250000000006
C      38.393799999999999     35.432350000000000     38.601649999999992
C      39.171599999999998     36.529349999999994     38.768550000000005
C      40.395300000000006     36.502949999999998     39.797749999999994
C      39.984499999999997     38.890549999999990     40.217749999999995
C      38.092100000000002     41.910950000000000     36.303849999999997
C      36.540499999999994     41.805149999999998     35.818850000000005
C      36.147599999999997     40.509550000000004     35.136250000000004
C      41.702699999999993     37.916849999999997     41.636850000000003
C      34.619299999999996     35.413150000000002     34.439450000000001
C      40.066199999999995     40.116649999999993     41.297550000000001
H      40.202299999999994     36.070149999999998     42.241550000000004
H      40.828100000000006     41.290649999999999     39.302249999999994
H      35.471099999999993     38.449749999999995     34.273150000000001
H      36.817899999999995     33.191550000000007     37.919050000000006
H      35.483300000000000     33.296949999999995     35.563650000000003
H      38.473100000000002     34.620350000000002     39.325549999999993
H      41.209199999999996     35.701049999999995     39.592550000000003
H      38.614299999999986     42.254750000000001     35.451850000000000
H      38.361999999999995     42.808449999999993     36.952750000000002
H      35.409499999999994     41.676349999999999     36.292250000000003
H      36.043799999999990     42.711050000000000     35.474849999999996
H      35.079700000000003     40.682149999999993     34.992450000000005
H      36.248099999999994     40.201250000000002     34.113150000000005
H      42.020199999999988     36.890950000000004     41.735149999999997
H      41.725700000000003     38.499750000000006     42.577449999999999
H      33.523300000000006     35.312650000000005     34.628950000000003
H      34.633399999999995     34.253649999999993     34.306049999999999
H      34.882900000000006     35.811549999999997     33.422550000000001
H      39.092900000000000     40.710049999999995     41.204750000000004
H      40.845799999999997     40.724950000000007     41.234450000000002
H      39.750999999999991     39.673749999999998     42.332949999999997
H      42.476699999999994     38.516249999999999     41.096850000000003
H      38.709500000000006     36.142349999999993     41.453749999999999
H      40.026100000000000     42.788349999999994     38.116550000000004
N      40.115899999999996     41.600549999999998     38.422250000000005
