13

C      37.503399999999999     36.889599999999987     37.857534999999999
C      37.610399999999998     38.514599999999987     35.979524999999995
C      38.752300000000005     39.085699999999989     36.451065000000000
C      39.304300000000012     38.594400000000000     37.606104999999999
C      38.747500000000002     37.112999999999992     39.911815000000004
C      38.505700000000004     37.741000000000000     38.526705000000007
C      36.752500000000012     37.568700000000000     36.716435000000004
H      37.110100000000003     38.832999999999998     35.041505000000001
H      39.326700000000002     39.948399999999999     35.739905000000007
H      40.033299999999997     39.105499999999999     38.213165000000004
H      37.111900000000006     36.051600000000001     38.314734999999999
H      35.966700000000003     36.997099999999996     36.152164999999997
O      38.843599999999995     36.902200000000001     40.958494999999999
