9

C      38.715799999999994     37.491450000000000     36.910349999999994
C      36.699899999999992     37.731949999999998     38.868249999999996
C      38.212100000000000     37.472949999999997     38.249149999999993
H      37.928300000000000     37.443550000000002     36.110149999999997
H      39.861900000000006     37.827349999999996     36.587550000000000
H      39.215600000000002     37.707250000000002     38.845549999999996
H      36.481999999999999     38.805350000000004     38.863549999999996
H      36.138099999999994     37.206649999999996     38.100850000000001
H      36.772500000000001     37.194649999999996     39.889850000000003
