6

C      37.447599999999994     37.416550000000001     38.619199999999992
C      37.945099999999996     38.586449999999999     37.990900000000003
H      39.055799999999991     38.711650000000006     38.273400000000002
H      37.498700000000014     39.495750000000001     38.140200000000000
H      37.803300000000007     38.490750000000006     36.910299999999999
O      36.944200000000009     36.504249999999999     39.089700000000001
