92

C      37.573784999999994     37.085549999999998     39.791349999999994
C      38.289884999999998     36.753450000000001     38.506750000000004
C      34.573584999999994     39.640349999999998     36.787450000000000
C      35.834985000000003     38.825849999999996     36.332450000000001
C      36.293684999999996     37.830349999999996     39.712150000000001
C      38.504485000000003     38.345950000000002     34.915350000000004
C      34.702685000000002     39.479950000000002     38.256450000000001
C      36.774784999999994     38.312850000000005     37.389550000000007
C      35.826284999999999     38.440049999999999     38.498049999999992
C      37.962684999999993     37.438749999999999     37.241949999999996
C      38.487084999999993     36.900950000000002     40.975050000000003
C      39.608284999999995     36.108550000000001     41.032950000000007
C      39.998284999999996     35.454950000000004     39.728149999999999
C      39.388784999999991     35.868549999999999     38.386950000000006
C      33.490884999999992     40.312350000000002     36.076050000000002
C      33.381484999999998     39.826950000000004     34.794449999999998
C      34.448184999999995     39.070350000000005     34.094550000000005
C      35.557284999999993     38.746150000000000     34.837850000000003
C      35.701284999999999     38.243749999999999     41.187850000000005
C      36.645584999999997     37.591850000000001     42.266749999999995
C      38.066084999999994     37.700550000000000     42.126849999999990
C      38.402684999999984     39.284849999999999     42.255850000000002
C      39.641085000000004     39.734349999999999     41.435549999999999
C      34.490484999999993     37.314450000000001     40.837949999999992
C      32.153984999999992     40.877449999999996     36.788650000000004
C      40.814584999999994     34.412350000000004     40.068550000000002
C      38.491084999999998     37.299750000000003     35.791550000000008
C      43.231784999999995     38.268149999999999     40.152850000000008
C      43.357755600000004     36.883250000000004     39.662049999999994
C      41.692584999999994     37.218749999999993     34.663450000000005
C      42.592384999999993     36.103950000000005     34.532750000000000
C      41.499785000000003     38.614950000000000     38.197250000000004
C      43.326884999999997     36.141850000000005     38.354050000000008
C      42.976284999999997     36.088750000000005     35.924650000000007
C      41.858985000000004     37.938850000000002     36.996550000000006
C      42.804684999999992     36.781750000000002     37.258650000000003
C      43.745803000000002     38.845150000000004     41.356550000000006
C      44.055366999999997     37.802249999999994     42.342349999999996
C      43.718629000000007     36.492950000000000     42.135949999999994
C      43.351782899999996     35.950150000000001     40.830750000000002
C      41.383984999999996     39.901049999999998     38.956750000000007
C      41.789484999999999     40.218550000000000     40.475450000000002
C      43.207084999999985     39.865649999999995     40.507650000000005
C      43.785783000000002     41.027550000000005     39.594749999999998
C      40.189484999999991     39.586950000000002     38.368450000000003
C      40.929585000000003     41.132649999999998     38.338650000000001
C      41.313284999999993     39.492049999999999     41.827349999999996
C      43.401777799999998     35.128850000000000     33.435549999999999
H      33.969484999999992     40.327549999999995     38.837250000000004
H      40.163984999999990     36.183450000000001     41.966650000000001
H      39.883584999999997     35.739149999999995     37.325450000000004
H      32.414085000000000     40.101349999999996     34.372150000000005
H      34.421984999999992     38.885150000000003     33.117449999999998
H      36.187685000000002     38.439849999999993     33.930350000000004
H      35.289384999999996     39.258550000000000     41.327249999999999
H      36.598384999999993     37.967649999999992     43.309149999999995
H      36.341484999999992     36.531350000000003     42.437050000000006
H      38.754584999999985     37.531849999999999     43.008050000000004
H      38.336084999999997     39.436050000000002     43.322549999999993
H      37.623684999999988     40.019449999999999     42.171450000000000
H      39.326184999999995     39.700349999999993     40.512750000000004
H      39.354984999999999     40.878349999999998     41.693850000000005
H      34.567385000000002     36.241550000000004     41.201349999999991
H      34.345784999999992     37.424750000000003     39.820949999999996
H      33.637985000000000     37.436249999999994     41.497350000000004
H      32.699484999999996     40.739550000000001     37.825250000000004
H      31.218284999999995     40.214449999999992     36.565050000000006
H      31.298584999999996     41.689250000000001     36.691949999999999
H      41.008984999999996     34.112150000000000     41.085850000000001
H      41.359484999999992     33.893050000000002     39.243749999999991
H      38.175884999999994     36.213149999999999     35.553550000000001
H      41.085684999999998     37.390250000000002     33.712350000000001
H      43.726158000000005     35.138850000000005     38.367850000000004
H      43.426979799999998     35.042449999999995     35.805250000000008
H      44.539895000000008     37.830849999999998     43.450250000000004
H      44.243841000000003     35.961649999999992     43.050249999999991
H      43.549641000000001     34.906150000000004     40.678150000000002
H      41.450184999999991     41.302450000000000     40.695149999999998
H      43.361428900000007     42.106949999999998     39.641449999999999
H      43.203085000000002     40.852449999999997     38.699950000000001
H      44.781715000000005     40.987950000000005     39.485350000000004
H      39.215585000000004     39.436450000000001     37.870350000000002
H      40.279484999999994     41.807150000000000     38.881250000000001
H      41.777884999999998     41.333849999999998     37.518350000000005
H      41.508785000000003     38.427050000000001     41.665250000000007
H      41.649484999999999     39.837249999999997     42.778849999999998
H      43.689424000000002     34.054950000000005     33.816850000000002
H      42.563985000000002     34.872650000000000     32.549749999999996
H      44.249815000000005     35.709050000000005     33.277049999999996
H      40.714185000000001     38.978950000000005     35.202649999999998
N      41.239584999999984     38.020450000000004     35.679450000000003
O      38.625284999999991     39.246850000000002     34.157150000000001
