5

C      37.929050000000004     38.355649999999997     38.382449999999992
C      38.324649999999991     37.504950000000001     37.438150000000007
H      38.030550000000005     38.450449999999996     39.500349999999997
H      37.449550000000002     39.128049999999995     37.688350000000000
O      38.550449999999998     36.871950000000005     36.499650000000003
