208

C      40.830549999999995     29.802149999999994     33.668799999999997
C      30.719950000000004     38.280550000000005     41.769900000000000
C      30.503750000000004     40.932050000000004     43.502699999999997
C      31.608249999999998     39.842750000000009     43.675100000000000
C      33.328550000000000     43.702150000000003     39.941899999999997
C      31.025050000000000     43.501450000000006     42.168199999999999
C      35.389550000000000     41.721549999999993     39.624000000000002
C      36.591149999999992     42.972350000000006     39.432100000000005
C      33.150650000000006     39.788350000000008     43.496599999999994
C      33.600949999999997     42.658550000000005     40.717300000000002
C      30.745450000000005     44.365849999999995     40.878000000000000
C      35.035250000000005     40.094250000000002     41.888200000000005
C      34.154150000000001     42.481150000000000     39.386099999999999
C      35.414550000000006     40.708749999999995     40.642200000000003
C      31.000750000000004     42.520449999999997     43.297400000000003
C      33.260649999999998     41.966849999999994     42.001300000000001
C      32.139750000000006     42.751450000000006     42.554600000000001
C      33.825749999999999     40.734049999999996     42.595900000000000
C      33.903149999999997     38.427149999999997     43.366699999999994
C      34.954050000000002     38.684649999999991     42.242500000000000
C      29.464349999999996     41.133750000000006     44.438500000000005
C      28.659149999999997     39.801050000000004     44.520599999999995
C      30.603250000000003     38.960149999999999     42.990000000000002
C      32.433149999999998     39.871650000000002     44.821399999999997
C      35.529550000000000     37.953749999999999     43.508099999999999
C      30.256550000000004     43.280249999999995     44.381399999999999
C      29.733850000000004     42.076750000000004     45.547400000000003
C      28.063050000000004     41.259850000000000     43.739500000000000
C      36.135050000000000     40.449749999999995     39.241000000000000
C      35.217849999999999     37.682850000000002     41.028700000000001
C      32.262350000000005     44.756749999999997     40.084899999999998
C      44.936349999999997     41.986649999999997     44.174799999999998
C      43.701149999999998     42.423450000000003     43.659200000000006
C      38.290149999999990     39.419849999999997     41.240100000000005
C      45.959050000000005     41.375850000000000     43.227200000000003
C      39.483050000000006     39.166950000000000     40.444099999999999
C      43.328849999999996     41.781649999999999     42.277900000000002
C      42.405749999999998     37.764550000000000     39.400500000000001
C      41.580149999999996     40.030749999999998     40.772400000000005
C      41.103350000000006     37.769450000000006     38.791999999999994
C      40.758249999999997     38.903450000000007     39.942200000000000
C      45.497849999999993     40.729450000000000     41.930900000000001
C      43.231649999999995     38.372249999999994     40.589399999999998
C      43.999549999999992     40.537250000000000     41.766300000000001
C      42.902550000000005     39.714249999999993     41.261499999999998
C      41.901949999999999     42.099450000000004     42.049199999999999
C      41.077950000000001     41.325950000000006     41.055500000000002
C      45.525350000000003     42.261849999999995     45.526399999999995
C      44.897250000000000     43.436250000000001     46.228199999999994
C      43.637449999999994     44.019350000000003     45.669699999999992
C      42.977449999999997     43.279449999999997     44.590400000000002
C      41.606350000000006     43.640749999999997     44.114399999999996
C      41.207549999999991     43.051850000000002     42.892700000000005
C      46.965750000000000     41.837350000000001     45.418899999999994
C      47.777949999999997     42.479650000000007     46.396099999999997
C      47.207949999999997     43.524649999999994     47.271499999999996
C      45.838549999999998     44.035849999999996     47.222600000000000
C      46.325749999999999     41.960549999999998     41.705200000000005
C      47.182150000000007     40.921149999999997     44.159600000000005
C      39.514550000000000     41.593850000000003     40.778300000000002
C      38.690250000000006     40.244749999999996     40.292300000000004
C      43.543949999999995     45.394649999999999     46.282499999999999
C      44.050250000000005     45.816850000000002     47.673300000000005
C      45.273449999999990     44.978149999999999     48.259500000000003
C      43.331649999999996     37.095450000000000     40.676500000000004
C      37.712750000000000     40.304450000000003     38.996800000000000
C      41.590549999999993     30.061950000000000     34.768700000000003
C      46.275449999999999     37.367150000000009     38.873499999999993
C      41.603350000000006     35.559250000000006     34.933199999999999
C      38.069950000000006     35.633150000000001     35.096000000000004
C      36.820450000000001     32.876150000000010     33.596000000000004
C      37.291250000000005     29.998250000000002     32.860700000000001
C      38.881349999999998     35.427349999999990     33.936699999999995
C      38.104050000000001     30.236749999999997     31.677299999999995
C      37.971649999999997     33.283250000000010     32.882300000000001
C      40.056150000000002     30.841150000000003     30.251000000000005
C      41.149849999999994     31.682950000000002     30.483699999999999
C      39.445850000000000     30.713950000000001     31.720300000000002
C      38.765249999999995     34.385150000000010     32.889000000000003
C      41.709249999999990     31.790649999999996     32.014099999999999
C      40.673149999999993     32.336550000000003     33.013500000000001
C      39.345649999999999     33.294950000000000     32.602699999999999
C      40.593950000000007     30.801250000000000     32.599900000000005
C      37.161749999999998     35.355550000000008     36.069600000000001
C      36.183950000000003     34.105249999999998     36.471700000000006
C      35.157750000000000     33.720950000000002     35.414199999999994
C      35.594049999999996     33.506450000000001     33.994499999999995
C      39.406350000000003     30.391450000000003     28.932200000000002
C      40.263450000000006     30.696550000000006     27.889099999999999
C      41.303949999999993     31.692750000000000     27.954700000000003
C      41.773750000000000     32.057350000000000     29.278800000000004
C      38.384850000000000     36.015650000000008     36.478900000000003
C      36.654049999999998     32.928250000000006     37.480099999999993
C      35.573650000000001     34.079250000000002     37.803300000000000
C      39.605750000000000     36.915250000000000     36.632899999999999
C      40.520250000000004     36.048749999999998     35.647299999999994
C      38.060450000000003     29.658450000000006     28.886600000000001
C      37.285650000000004     29.899949999999993     30.381300000000003
C      34.203250000000004     33.122650000000007     38.472900000000003
C      33.389449999999997     32.852449999999990     37.101100000000002
C      33.982950000000002     33.029350000000008     35.723600000000005
C      40.377250000000004     35.513150000000010     34.195699999999995
C      34.991749999999996     34.715450000000004     33.046099999999996
C      35.466149999999999     32.328850000000003     32.958600000000004
C      39.789550000000006     38.331450000000004     35.950099999999999
H      38.746949999999998     32.446250000000006     37.525999999999996
H      45.780249999999995     36.212750000000000     37.536400000000000
H      43.887650000000008     35.402650000000008     38.477100000000000
H      33.120450000000005     37.715050000000005     43.118999999999993
H      38.274649999999994     30.651949999999996     34.786500000000004
H      28.586950000000002     38.096650000000011     43.230600000000003
H      31.752350000000000     45.133550000000000     39.071100000000001
H      36.101849999999999     43.879050000000007     39.349199999999996
H      36.837350000000001     42.864050000000006     38.401900000000005
H      29.926350000000006     44.072350000000000     40.259599999999992
H      30.217149999999997     45.263750000000002     41.251599999999996
H      28.014649999999996     39.524150000000006     45.439999999999998
H      32.254550000000002     41.037350000000004     45.474599999999995
H      32.358150000000002     39.309849999999997     45.765499999999996
H      35.381349999999998     36.878950000000003     43.539200000000001
H      36.600750000000005     38.105049999999991     43.520600000000002
H      30.537250000000000     44.406649999999999     44.316200000000002
H      29.411749999999998     43.686149999999998     43.770700000000005
H      28.823850000000000     42.535449999999997     45.892099999999999
H      30.295450000000002     42.161850000000001     46.403899999999993
H      27.497450000000001     41.179550000000006     42.856499999999997
H      27.152350000000006     41.577749999999995     44.264999999999993
H      35.496949999999998     40.092550000000003     38.435099999999998
H      35.970450000000000     36.866750000000010     40.834000000000003
H      34.390549999999998     36.930349999999990     41.078200000000002
H      34.953749999999999     38.309449999999998     40.174300000000002
H      32.757650000000005     45.440650000000005     40.864799999999995
H      45.887749999999997     34.022649999999999     37.446499999999993
H      36.797750000000001     43.080449999999999     40.580900000000000
H      37.794750000000001     39.232350000000011     42.060000000000002
H      47.303349999999995     39.626050000000006     41.691399999999994
H      40.915050000000001     44.233249999999998     44.640199999999993
H      40.234350000000006     43.594250000000002     42.520099999999999
H      48.847649999999994     42.283150000000006     46.474499999999999
H      48.145949999999999     43.704350000000005     48.218699999999998
H      45.689650000000000     42.976650000000006     41.400099999999995
H      47.250449999999994     41.446550000000002     41.233200000000004
H      47.085149999999992     39.759050000000002     44.320500000000003
H      48.156850000000006     41.380650000000003     43.724499999999992
H      39.371049999999997     42.244349999999997     39.964900000000000
H      39.314450000000001     42.026550000000000     41.779099999999993
H      42.387749999999990     45.517349999999993     46.112499999999997
H      43.602649999999997     46.146550000000005     45.388699999999993
H      44.384349999999998     47.192149999999998     47.163199999999996
H      43.462850000000003     46.346649999999997     48.416600000000003
H      45.981949999999998     45.645949999999999     48.662799999999997
H      44.958849999999998     44.703850000000003     49.106499999999997
H      38.103650000000002     41.185450000000003     38.544900000000005
H      37.894350000000003     39.474750000000000     38.364100000000001
H      43.684949999999994     30.864050000000002     31.897600000000004
H      45.855149999999995     38.611850000000004     40.720600000000005
H      46.113549999999996     33.892750000000007     41.329299999999996
H      46.788350000000008     31.944749999999996     39.104999999999997
H      46.071549999999995     35.182350000000000     39.552199999999999
H      42.389949999999992     35.759450000000001     39.469100000000005
H      40.586650000000006     32.459150000000008     34.164400000000001
H      43.363450000000000     35.276349999999994     34.528700000000001
H      36.380850000000002     29.375350000000001     32.836000000000006
H      39.890050000000002     30.479850000000003     26.893500000000003
H      41.972650000000002     31.736249999999995     27.074900000000000
H      42.660950000000000     32.389749999999992     29.686899999999994
H      36.443449999999999     31.977250000000002     37.222200000000001
H      35.804150000000000     34.926550000000006     38.458699999999993
H      38.269950000000001     28.823450000000005     28.334699999999998
H      37.250050000000002     29.865050000000000     28.076000000000001
H      36.946150000000003     30.932250000000007     30.003500000000003
H      36.460149999999999     29.201250000000005     30.465299999999999
H      34.459050000000005     32.149150000000006     38.774600000000000
H      33.786850000000001     33.426050000000004     39.455600000000004
H      32.442450000000001     32.317850000000007     36.973600000000005
H      33.369450000000001     32.266249999999999     35.002300000000005
H      35.852950000000000     35.537549999999996     33.137200000000000
H      34.871250000000003     34.427950000000010     32.131500000000003
H      33.886749999999999     35.163550000000001     33.390200000000000
H      35.326650000000001     32.613450000000000     32.033599999999993
H      34.808450000000001     31.548949999999994     33.286100000000005
H      39.544350000000001     38.824250000000006     34.842100000000002
H      40.853049999999996     38.441150000000007     35.836500000000001
H      39.284450000000000     39.087850000000003     36.652299999999997
H      40.013750000000002     35.739949999999993     38.699300000000001
H      43.905349999999999     32.794749999999993     32.490400000000001
H      38.432449999999996     34.273350000000008     37.750700000000002
H      47.960449999999987     32.014850000000010     40.435799999999993
H      40.137050000000002     28.807849999999998     33.797600000000003
H      36.930650000000000     29.433150000000001     34.725800000000000
H      45.520650000000003     33.174850000000006     38.966999999999999
N      29.328449999999997     38.664250000000010     43.863999999999997
N      40.071650000000005     36.841450000000009     38.140000000000001
N      46.250550000000004     39.646150000000006     41.339800000000004
N      37.813550000000006     30.036250000000006     34.090399999999995
N      43.262050000000002     31.771350000000002     32.338100000000004
N      38.087950000000006     33.242450000000005     37.786900000000003
O      30.372149999999998     38.293850000000006     40.669699999999992
O      46.016950000000008     32.740949999999998     38.224299999999992
O      45.479450000000000     34.377750000000006     40.475999999999999
O      43.083150000000003     36.267849999999996     41.530700000000003
O      41.985449999999993     30.201850000000004     35.847100000000005
O      46.356650000000002     37.372150000000005     40.083700000000000
O      46.213949999999990     37.570850000000007     37.658999999999999
O      42.615650000000002     36.015150000000006     34.231099999999998
O      47.904750000000007     31.281650000000003     39.739800000000002
O      45.329549999999990     35.122950000000003     38.287399999999998
O      42.598650000000006     35.088350000000005     38.772400000000005
