5

C      37.955599999999997     37.402299999999990     37.853349999999992
C      37.453700000000005     38.206899999999997     38.934650000000005
H      37.128299999999996     37.567899999999987     37.065349999999995
H      38.871700000000004     36.941400000000002     37.883449999999996
O      38.167700000000004     39.058599999999998     38.725650000000002
