34

C      38.561599999999999     37.766300000000001     38.237249999999996
C      38.525099999999995     36.693100000000008     37.203749999999999
C      34.000500000000002     37.706300000000006     36.498649999999998
C      37.161600000000007     38.105500000000006     38.683650000000000
C      37.271000000000001     36.048200000000008     36.582750000000004
C      34.647300000000001     38.059500000000007     37.794250000000005
C      34.803500000000000     36.983300000000007     35.737949999999998
C      36.064499999999995     37.800000000000004     37.747650000000000
C      36.084599999999995     36.799299999999995     36.492450000000005
C      39.628799999999998     38.655299999999997     38.630749999999999
C      41.128000000000000     38.166300000000000     38.104750000000003
C      40.900099999999995     36.842500000000008     37.575450000000004
C      39.842199999999991     36.041000000000004     36.910850000000003
C      39.393699999999995     39.682199999999995     39.588750000000005
C      40.492199999999997     40.064900000000002     40.300250000000005
C      42.219200000000001     38.434400000000004     39.217650000000006
C      37.158100000000005     38.879100000000008     40.061450000000001
C      38.115300000000005     40.255700000000004     39.723950000000002
C      40.107900000000001     35.531200000000005     35.585450000000002
C      41.808300000000003     37.065700000000007     38.798249999999996
H      33.069900000000004     38.212200000000003     36.201149999999998
H      37.365399999999994     35.453500000000005     35.713949999999997
H      34.134699999999995     38.774000000000001     38.636949999999999
H      34.586199999999991     36.435700000000004     34.815849999999998
H      40.210999999999999     40.920299999999997     40.933649999999993
H      36.200900000000004     38.841000000000001     40.161049999999996
H      38.008899999999997     38.383600000000008     40.650649999999999
H      38.030900000000003     40.700899999999997     40.792949999999998
H      37.964399999999998     40.749699999999997     38.683449999999993
H      42.930099999999996     38.946400000000004     38.678449999999998
H      42.286400000000000     36.209500000000006     39.347949999999997
H      42.340199999999996     39.520200000000003     41.204949999999997
N      41.626000000000005     39.167000000000002     40.533749999999998
O      40.725200000000001     35.079700000000003     34.795050000000003
