29

C      38.329399999999985     38.475144999999983     37.672049999999999
C      37.055099999999996     39.208645000000004     37.560350000000000
C      39.811499999999995     42.974705000000000     38.579750000000004
C      39.506799999999991     39.232144999999988     38.154849999999996
C      36.964699999999986     40.667835000000011     37.812449999999998
C      40.363600000000005     41.675895000000011     38.747349999999997
C      39.218900000000005     40.620105000000009     38.678250000000006
C      37.938400000000001     41.436995000000010     38.367550000000008
C      40.517399999999988     38.158744999999996     37.891350000000003
C      36.954300000000003     36.335544999999996     36.975449999999995
C      35.712299999999999     37.060945000000004     37.252549999999999
C      35.780900000000003     38.441045000000003     37.360849999999999
C      38.275499999999994     37.077345000000008     37.257350000000002
C      35.358699999999999     34.219645000000000     36.746849999999995
C      36.517099999999999     35.055945000000008     36.846249999999998
C      36.539100000000005     33.367045000000005     36.393749999999997
C      39.676199999999994     37.031445000000005     37.378550000000004
C      35.271500000000003     32.715244999999996     36.736050000000006
H      40.348199999999999     43.883555000000001     38.903649999999999
H      41.083799999999997     41.603994999999998     39.606250000000003
H      34.859700000000004     36.573745000000002     37.376249999999999
H      34.914500000000004     38.888045000000005     37.885549999999995
H      37.524000000000001     32.748745000000000     36.480249999999998
H      40.059200000000004     36.126845000000003     37.310949999999991
H      35.907200000000003     41.222894999999994     37.876949999999994
H      37.816699999999997     43.717224999999999     38.341449999999995
H      41.503900000000002     38.082944999999981     38.404449999999997
N      38.441099999999999     42.829705000000004     38.205849999999998
O      34.496099999999998     32.116444999999999     37.525850000000005
