6

C      38.389499999999991     37.591049999999996     37.634450000000001
C      37.699900000000000     38.283950000000004     38.499150000000000
H      37.908600000000007     36.847750000000005     36.971050000000005
H      38.051700000000011     39.152249999999995     39.028949999999995
H      36.527600000000000     38.131850000000000     38.561449999999994
H      39.472400000000000     37.664149999999999     37.636650000000003
