50

C      37.035499999999999     39.131149999999991     38.809849999999997
C      40.865700000000004     33.412750000000003     36.049850000000006
C      38.048100000000005     39.425249999999998     37.740650000000002
C      40.834900000000005     36.333250000000000     35.105149999999995
C      36.975200000000001     37.870350000000002     39.614649999999997
C      39.457099999999997     34.700749999999999     37.552949999999996
C      38.450699999999998     38.181449999999998     37.077050000000000
C      39.715400000000002     36.734349999999992     35.774550000000005
C      37.516700000000000     36.653849999999998     38.894450000000006
C      38.458100000000002     34.448349999999998     38.445350000000005
C      38.392700000000005     36.845749999999995     37.730649999999997
C      39.355199999999996     36.015949999999997     36.980149999999995
C      39.359499999999997     39.476149999999997     35.124650000000003
C      39.167400000000001     38.176850000000002     35.777550000000005
C      36.588499999999996     40.331350000000000     39.743449999999996
C      37.352999999999994     41.506049999999995     39.136049999999997
C      38.268500000000003     41.903649999999999     37.928749999999994
C      38.468000000000004     40.720250000000000     37.107650000000007
C      39.011700000000005     40.784950000000002     35.700950000000006
C      38.258600000000001     40.117649999999998     34.550349999999995
C      36.467900000000000     37.641849999999998     41.068349999999995
C      36.388099999999994     38.868450000000003     41.964550000000003
C      36.857299999999995     40.007449999999999     41.124249999999989
C      39.528899999999993     36.178350000000002     34.425250000000005
C      34.903999999999996     37.016350000000003     41.144649999999999
C      40.527699999999996     39.523249999999997     34.037750000000003
C      35.245099999999994     40.338549999999998     40.300649999999990
H      41.875699999999995     36.335050000000003     34.679950000000005
H      38.007499999999993     42.801150000000000     37.441350000000000
H      39.182299999999998     41.811949999999989     35.454650000000001
H      37.820999999999998     39.859549999999992     33.619749999999996
H      37.412700000000001     37.045250000000003     41.687550000000002
H      37.218500000000006     38.631450000000001     42.923450000000003
H      35.585899999999995     39.206949999999992     42.562650000000005
H      37.194599999999994     41.015549999999990     41.679649999999995
H      34.664800000000000     36.298549999999999     40.396050000000002
H      34.124300000000005     37.662050000000001     40.955250000000007
H      35.045299999999997     36.333750000000002     41.986149999999995
H      40.649999999999991     38.865749999999998     33.192549999999997
H      40.637299999999996     40.542650000000002     33.717849999999999
H      41.540999999999997     39.480950000000000     34.552049999999994
H      34.908000000000001     40.893149999999999     41.189149999999998
H      34.202200000000005     40.418549999999989     39.835949999999997
H      38.353800000000007     35.614350000000002     33.076549999999997
H      38.355400000000003     33.636949999999992     39.186049999999994
N      37.586500000000001     35.349649999999997     39.245750000000001
O      39.231300000000005     35.215349999999994     33.426349999999999
O      40.533900000000003     33.500250000000001     37.233050000000006
O      41.338899999999995     33.198850000000000     34.925650000000005
O      38.498900000000006     41.882750000000001     39.515150000000006
