6

C      37.465799999999987     37.627349999999993     37.832149999999999
C      38.396199999999993     38.436049999999987     38.098650000000006
H      37.681600000000003     36.464250000000000     37.844849999999994
H      36.539900000000003     38.035750000000000     37.988450000000007
H      39.460099999999997     38.160649999999990     38.187249999999999
H      38.257999999999996     39.535750000000000     37.812750000000001
