27

C      35.674649999999993     37.736999999999988     37.834599999999995
C      39.840449999999997     34.606899999999996     39.540900000000001
C      40.196349999999995     35.866399999999999     39.089300000000001
C      39.345649999999999     36.379500000000000     38.076100000000004
C      38.040049999999994     35.775700000000001     37.918300000000002
C      37.549750000000003     34.625900000000001     38.675500000000007
C      38.610150000000004     33.997999999999998     39.517899999999997
C      39.695250000000001     40.277699999999996     36.631200000000007
C      38.888350000000003     41.561099999999996     36.664600000000000
C      38.420649999999988     41.932299999999998     38.063900000000004
C      37.637649999999994     40.744799999999998     38.436400000000006
C      39.082350000000005     39.139099999999999     37.201599999999999
C      38.043650000000000     39.368899999999989     38.242799999999995
C      37.035549999999994     38.367300000000000     38.860400000000006
H      37.152650000000001     36.003299999999996     37.330400000000004
H      40.731750000000005     34.297300000000000     40.218600000000002
H      41.217150000000004     36.303599999999996     39.125000000000007
H      36.667850000000001     34.084299999999992     38.559100000000008
H      38.390449999999994     33.094099999999997     40.173700000000004
H      40.353249999999996     40.189300000000003     35.781399999999998
H      38.841949999999990     42.095299999999988     35.837900000000005
H      38.250950000000003     42.905900000000003     38.376900000000006
H      36.894449999999999     40.895299999999985     39.152500000000003
H      36.500349999999997     38.682199999999987     39.892100000000006
H      37.558050000000001     37.507199999999997     39.546399999999998
O      34.782849999999996     37.397500000000001     37.290000000000006
S      40.148449999999997     37.683999999999997     37.021700000000003
