65

C      36.090049999999991     39.171149999999997     36.803844999999995
C      36.564850000000000     38.380650000000003     37.903444999999991
C      34.943950000000001     38.584850000000003     40.919118000000012
C      34.758749999999999     39.396349999999998     37.108844999999988
C      36.604549999999996     37.975250000000003     39.211145000000002
C      36.100649999999995     37.773450000000004     40.570570000000004
C      32.751950000000001     39.104950000000002     39.032344999999992
C      34.123249999999999     39.067050000000002     38.390344999999996
C      33.949449999999999     39.056550000000001     39.863644999999991
C      36.992049999999992     40.028550000000003     35.900244999999998
C      38.418949999999995     39.721850000000003     35.640644999999992
C      39.382550000000002     38.780950000000004     36.453445000000002
C      37.855550000000001     37.719350000000006     38.192844999999991
C      36.231049999999989     41.000150000000005     35.112344999999991
C      37.081150000000001     42.068950000000001     34.410444999999996
C      38.462550000000000     41.751349999999995     34.161344999999997
C      38.966650000000001     40.387450000000001     34.495244999999997
C      34.781349999999996     40.953150000000001     35.215144999999993
C      34.039349999999999     40.194150000000000     36.219044999999994
C      40.829149999999991     38.767749999999999     36.152344999999997
C      41.018850000000000     35.542550000000006     35.786744999999996
C      38.957250000000002     37.866750000000003     37.436644999999999
C      36.506349999999991     43.279150000000001     33.702945000000000
C      35.304549999999999     39.584949999999992     41.978525000000019
C      34.188949999999998     38.305550000000004     42.290785000000014
C      33.975149999999999     41.910150000000002     34.252544999999998
C      39.985050000000001     35.247850000000000     38.298144999999991
C      39.896249999999995     36.595950000000002     37.747945000000001
C      40.029649999999990     35.475449999999995     36.887445000000000
C      39.165949999999995     34.107849999999999     39.205444999999997
C      41.423150000000000     35.153350000000003     39.000444999999999
C      38.293650000000000     33.073050000000002     39.165444999999991
C      38.345250000000000     32.059650000000005     40.348160000000007
C      38.826149999999991     33.495950000000001     40.540656000000013
C      41.818049999999992     34.140150000000006     39.881344999999996
C      38.796349999999990     34.489750000000001     36.236544999999992
C      42.906450000000000     35.633150000000001     38.816644999999994
H      36.315849999999998     37.034150000000004     41.301415000000006
H      32.185749999999999     39.938949999999998     38.779944999999998
H      38.625650000000000     42.501950000000001     33.271744999999996
H      39.932149999999993     40.491150000000005     33.958545000000001
H      32.904649999999997     40.240950000000005     36.503644999999992
H      41.348950000000002     39.588650000000001     35.578044999999989
H      40.646850000000001     35.069749999999999     34.852144999999993
H      34.905049999999996     40.500449999999994     42.458605000000006
H      36.379949999999994     39.299050000000001     42.388454999999993
H      34.381949999999996     37.343550000000000     42.728255000000004
H      33.221049999999998     38.738950000000003     42.277095000000003
H      33.833549999999995     42.752250000000004     34.847645000000000
H      34.541750000000000     42.117350000000002     33.292944999999989
H      32.659849999999992     41.386550000000000     34.324244999999991
H      42.093049999999991     35.209350000000001     36.033244999999994
H      40.677450000000000     36.509950000000003     35.394244999999998
H      38.388049999999993     34.203749999999999     41.047497000000007
H      41.180250000000001     33.444150000000000     40.496114000000006
H      42.843049999999998     34.223150000000004     40.119644999999991
H      37.821050000000000     34.428650000000005     36.769044999999991
H      39.398549999999993     33.574850000000005     36.328344999999999
H      38.639349999999993     34.736550000000001     35.171044999999992
H      43.103249999999996     36.851350000000004     38.651645000000002
H      43.365149999999993     35.398949999999999     37.780944999999988
H      43.814250000000001     35.275250000000000     39.806444999999997
O      36.207450000000001     44.285950000000000     33.300244999999990
O      41.527149999999992     37.979049999999994     36.626444999999990
O      37.818550000000002     31.714050000000000     41.432175000000001
