6

C      37.598814999999995     38.055549999999997     38.476199999999992
C      38.327735000000004     37.766650000000006     37.380099999999999
H      37.010764999999999     39.087750000000007     38.649899999999988
H      37.493655000000004     37.364950000000000     39.489500000000000
H      38.989235000000001     36.912249999999993     37.487299999999998
H      38.227614999999993     38.332750000000004     36.510500000000000
