17

C      48.283899999999988     48.908549999999991     46.031799999999990
C      47.625500000000002     46.257550000000002     47.281900000000000
C      48.240200000000002     49.228649999999995     47.648099999999999
C      47.566899999999997     48.257849999999998     48.606800000000000
C      49.009200000000000     50.187949999999994     48.323099999999990
C      46.771000000000001     46.985749999999996     48.299900000000001
C      48.673099999999998     50.238549999999996     49.795200000000001
C      47.675100000000000     49.144750000000009     49.829100000000004
H      49.142499999999998     48.324050000000000     45.830399999999997
H      47.529600000000002     48.405250000000002     45.455900000000000
H      48.730199999999996     49.709650000000003     45.524200000000000
H      47.514200000000002     45.170749999999998     47.204699999999995
H      48.620599999999989     46.539850000000001     47.286099999999998
H      49.890300000000003     50.829250000000002     48.097699999999996
H      46.109699999999997     46.652450000000002     49.236299999999993
H      49.008000000000003     50.825049999999997     50.409999999999989
H      46.819200000000002     48.769950000000001     50.544100000000000
