42

C      47.598199999999999     48.376194999999996     48.154349999999994
C      48.531400000000005     49.532294999999998     47.814549999999997
C      50.314899999999994     47.002985000000002     45.099549999999994
C      47.407300000000006     45.392335000000003     47.571150000000003
C      49.532200000000003     49.179295000000003     46.861949999999993
C      49.212599999999995     46.629375000000003     45.913550000000001
C      48.498199999999997     46.014294999999997     47.072350000000000
C      47.537400000000005     46.851275000000001     47.769750000000002
C      49.851299999999995     48.007095000000000     45.951650000000001
C      46.405799999999999     48.703695000000003     48.963849999999994
C      46.210999999999999     50.068294999999999     49.383449999999996
C      47.180999999999997     51.135195000000003     49.317250000000001
C      48.447299999999998     50.807695000000002     48.743549999999999
C      46.212800000000001     44.490675000000003     47.318550000000002
C      45.848900000000000     43.241965000000000     47.764949999999999
C      45.425399999999996     47.601995000000002     49.622549999999990
C      50.510599999999997     50.540694999999999     46.325450000000004
C      49.705699999999993     51.698495000000001     46.295749999999998
C      49.129099999999994     51.897894999999998     47.798249999999996
C      49.851200000000006     51.236394999999995     49.211549999999988
C      50.065299999999993     52.423695000000002     50.337549999999993
C      46.706800000000001     52.582095000000002     49.797349999999994
H      45.384199999999993     50.237294999999996     50.040949999999995
H      51.521400000000000     46.309494999999998     44.743049999999997
H      45.729799999999997     45.084274999999998     46.588849999999994
H      45.080799999999996     42.790835000000001     47.267049999999998
H      46.418700000000001     42.569105000000000     48.600349999999992
H      45.614300000000000     46.667054999999998     49.490849999999995
H      45.228999999999999     47.663395000000001     50.859749999999991
H      49.591800000000006     52.292495000000002     51.256950000000003
H      50.629199999999997     50.489395000000002     45.201349999999991
H      48.755300000000005     51.864394999999995     45.962750000000000
H      50.165199999999999     52.552394999999997     45.958950000000002
H      48.176699999999997     52.532395000000001     47.745949999999993
H      50.307699999999997     53.430895000000000     49.849449999999990
H      50.532300000000006     50.496895000000002     48.852149999999995
H      51.478600000000000     50.674595000000004     46.803249999999991
H      51.108300000000000     52.703595000000000     50.805549999999997
H      47.626800000000003     53.060195000000000     49.903149999999997
H      45.853200000000001     52.918694999999992     49.017749999999992
H      46.364500000000007     52.732295000000001     50.973549999999989
H      44.478600000000000     47.770195000000001     49.255549999999999
