22

C      45.299199999999992     47.659749999999988     48.122699999999988
C      45.635700000000000     49.059249999999999     48.275599999999997
C      46.471699999999998     46.618749999999991     48.629199999999997
C      46.994199999999992     49.582849999999993     47.695799999999991
C      47.834400000000002     47.425049999999992     49.074200000000005
C      47.990200000000002     48.750149999999998     48.699599999999990
C      48.995999999999995     46.374249999999996     49.009199999999993
C      49.442899999999995     49.187449999999991     48.756199999999993
C      50.273699999999991     46.799149999999997     48.964500000000001
C      50.516499999999994     48.215149999999994     48.808099999999996
H      44.395899999999997     47.343749999999993     48.884399999999999
H      44.964900000000000     47.205949999999994     47.131199999999993
H      44.709299999999999     49.809649999999998     48.181199999999997
H      45.854500000000002     49.260149999999989     49.365399999999994
H      45.912899999999993     45.857049999999994     49.404200000000003
H      46.529499999999999     46.609149999999993     47.506299999999996
H      47.121799999999993     49.678549999999994     46.595799999999997
H      47.012000000000000     50.662150000000004     47.952199999999998
H      48.535600000000002     45.337849999999996     49.203099999999992
H      49.461500000000001     50.207450000000001     48.461500000000001
H      51.133899999999997     46.032149999999994     49.048800000000000
H      51.604100000000003     48.517049999999998     48.453299999999999
