5

C      48.069199999999995     48.261549999999993     48.353499999999997
H      48.882999999999996     48.747850000000000     48.000200000000000
H      47.117000000000004     48.723249999999993     48.548399999999994
H      47.667699999999996     48.085249999999995     47.112900000000003
H      48.307299999999998     47.252150000000000     48.887099999999997
