18

C      46.799864999999990     46.414599999999993     49.037849999999992
C      49.259895000000000     47.652999999999999     49.961849999999998
C      47.495795000000001     47.490000000000002     48.124450000000010
C      48.601295000000007     48.142299999999999     48.600750000000005
C      46.987344999999991     48.158400000000007     46.959350000000001
C      49.311994999999996     49.254899999999999     47.865549999999999
C      47.376395000000002     49.217500000000001     46.085250000000002
C      48.654795000000000     49.710199999999993     46.648949999999999
H      45.633904999999999     46.390000000000001     48.952150000000003
H      50.366095000000001     47.571199999999997     49.761049999999997
H      47.376395000000002     45.362800000000000     48.819850000000002
H      47.140434999999997     46.365400000000001     50.138750000000002
H      48.988594999999997     48.532800000000002     50.787549999999996
H      48.583195000000003     46.836399999999998     50.558850000000007
H      46.290025000000000     47.586199999999998     46.277450000000002
H      50.298995000000005     49.629500000000000     47.954050000000009
H      47.001774999999995     49.510500000000000     45.212450000000004
H      49.107295000000008     50.637200000000000     46.191050000000004
