22

C      45.530099999999990     47.045699999999989     48.276099999999985
C      45.722799999999992     47.657399999999996     46.849899999999998
C      46.790300000000002     46.334699999999998     48.783799999999992
C      46.623000000000005     49.084399999999988     46.915900000000001
C      48.000299999999996     47.357900000000001     48.412199999999991
C      47.840200000000010     48.557999999999993     47.764500000000005
C      49.274900000000002     46.677299999999988     48.757100000000001
C      49.084999999999994     49.440799999999996     47.562899999999992
C      50.388899999999992     47.566199999999995     48.817100000000003
C      50.283599999999993     48.876899999999992     48.072399999999995
H      44.637199999999993     46.513300000000001     48.328899999999997
H      45.093099999999993     47.796999999999997     48.971699999999991
H      44.703599999999994     47.950899999999990     46.477600000000002
H      45.901100000000000     47.134699999999995     46.048099999999998
H      46.782699999999991     45.576599999999999     48.031900000000000
H      46.881199999999993     46.071199999999990     49.951900000000002
H      46.084400000000002     49.705699999999993     47.835799999999999
H      46.071500000000000     49.595199999999991     46.217499999999994
H      49.429699999999997     45.710399999999993     49.007200000000005
H      48.895399999999995     50.423400000000001     47.103299999999997
H      51.362800000000007     47.081499999999991     49.053999999999995
H      51.188400000000001     49.418700000000001     48.113700000000001
