23

C      48.119299999999996     48.020399999999995     45.711649999999992
C      49.114300000000000     46.970200000000006     46.459150000000001
C      46.070300000000003     48.310999999999993     47.010649999999998
C      48.294299999999993     46.060299999999998     49.185449999999996
C      47.646000000000001     48.032799999999995     47.326450000000001
C      48.093199999999996     48.890400000000000     48.275749999999995
C      47.932400000000001     46.570899999999995     47.548049999999996
C      48.970500000000001     49.804599999999994     48.811450000000001
C      49.485299999999995     46.981099999999998     49.808649999999993
C      49.139899999999997     48.426800000000000     49.171050000000001
H      45.504000000000005     47.351500000000001     47.179049999999997
H      47.283000000000001     47.712199999999996     45.152149999999999
H      48.691699999999997     48.863799999999998     45.303449999999998
H      50.495999999999995     46.600200000000001     49.397950000000002
H      49.582700000000003     46.193299999999994     45.867249999999991
H      45.730400000000003     49.136399999999995     46.292749999999998
H      45.538799999999995     48.627700000000004     47.755050000000004
H      48.803100000000001     45.001000000000005     49.293950000000002
H      47.541499999999999     46.015900000000002     49.899650000000001
H      47.231200000000001     45.869100000000003     47.182449999999996
H      48.930800000000005     50.998999999999995     48.658149999999999
H      49.078199999999995     46.934700000000007     50.847850000000001
H      49.923299999999998     47.610799999999998     47.089149999999997
