22

C      47.100349999999992     45.644999999999996     47.369599999999991
C      46.577149999999989     46.898399999999995     46.688099999999991
C      48.166449999999998     45.986500000000007     48.639799999999994
C      49.727549999999994     47.826700000000002     48.170099999999991
C      48.135049999999993     47.531799999999990     48.463700000000003
C      47.264749999999992     48.067599999999999     47.327799999999996
C      48.682849999999988     48.527099999999990     49.256900000000002
C      47.387749999999997     49.441299999999998     46.989599999999996
C      48.606650000000002     49.998300000000000     49.030699999999996
C      47.983649999999997     50.454200000000000     47.868099999999998
H      46.400649999999999     44.829700000000003     48.081899999999990
H      47.432749999999999     44.581800000000001     46.979100000000003
H      46.183449999999993     46.899400000000000     45.777900000000002
H      45.562049999999999     46.987899999999996     47.148699999999991
H      49.013750000000002     45.506799999999998     48.390500000000003
H      48.041150000000002     45.662599999999998     49.607799999999997
H      49.663949999999986     48.830900000000000     47.789499999999990
H      50.437950000000001     47.624199999999988     48.793300000000002
H      48.809449999999998     48.230100000000007     50.222099999999998
H      46.946749999999994     49.832400000000007     46.102999999999994
H      48.797550000000001     50.670000000000002     49.836799999999997
H      47.670949999999991     51.418199999999999     47.540399999999991
