22

C      48.226149999999997     47.366739999999993     50.326999999999991
C      49.700749999999999     47.897570000000002     50.009999999999998
C      47.107650000000007     48.119569999999996     49.545200000000001
C      49.624949999999998     49.174980000000005     49.221799999999995
C      47.395750000000007     48.598870000000005     48.029100000000000
C      48.725549999999998     49.299279999999996     47.900299999999994
C      46.561550000000004     48.264249999999990     46.991799999999998
C      49.191150000000007     49.369180000000000     46.516199999999998
C      46.782850000000003     48.448149999999998     45.584499999999998
C      48.082550000000005     48.978480000000005     45.494000000000000
H      47.955250000000007     47.395019999999988     51.418300000000002
H      48.259250000000009     46.256720000000001     49.871699999999997
H      50.407650000000004     47.964339999999993     51.033200000000008
H      50.423150000000007     47.314269999999993     49.638500000000001
H      46.082350000000005     47.372799999999998     49.493600000000001
H      46.577849999999998     48.690869999999990     50.372399999999999
H      50.473050000000001     49.677379999999999     48.690100000000001
H      49.254550000000009     49.743279999999999     50.098299999999995
H      45.526949999999999     47.644900000000007     47.252099999999999
H      50.211550000000003     49.479579999999999     46.053999999999995
H      46.042150000000007     48.216369999999998     44.788499999999999
H      48.692350000000005     49.243579999999994     44.581699999999998
