26

C      49.977184999999992     49.733949999999993     47.676549999999999
C      48.433485000000005     50.117550000000008     46.987750000000005
C      49.537365000000001     48.841350000000006     48.887050000000002
C      47.041945000000005     47.637950000000004     50.060850000000002
C      48.022945000000000     48.220349999999996     48.681650000000005
C      47.605825000000003     48.837450000000004     47.324150000000003
C      47.664335000000001     46.775850000000005     49.001750000000001
C      47.343724999999999     48.130250000000004     46.091250000000002
C      47.083225000000006     46.242750000000001     47.759650000000008
C      46.997625000000006     46.919950000000000     46.510350000000003
C      46.168305000000004     49.507649999999998     47.448049999999995
H      50.834634999999999     50.367350000000002     47.897850000000005
H      50.251034999999995     49.206550000000007     46.705150000000003
H      48.607225000000000     50.403149999999997     45.931049999999999
H      47.917025000000002     50.760649999999998     47.841250000000002
H      49.450355000000002     49.595450000000000     49.994450000000001
H      50.204145000000004     48.084350000000001     49.318049999999999
H      45.950175000000002     47.626549999999995     50.086150000000004
H      47.553245000000004     47.633150000000001     51.059650000000005
H      49.001975000000002     46.279250000000005     49.283850000000001
H      47.246655000000004     48.255549999999999     44.940349999999995
H      46.771245000000000     45.239350000000002     47.974249999999998
H      46.544755000000002     46.221750000000000     45.687650000000005
H      46.109055000000005     50.387550000000005     46.862250000000003
H      46.028915000000005     50.318349999999995     48.438749999999999
H      45.165365000000001     49.116950000000003     47.194350000000000
