22

C      47.619100000000003     49.582549999999991     49.777000000000001
C      48.214400000000005     48.383250000000004     50.707799999999992
C      48.105300000000007     49.927049999999994     48.276100000000000
C      48.223800000000004     47.207949999999997     49.811599999999999
C      48.355300000000007     48.719850000000001     47.611599999999996
C      48.419699999999999     47.462450000000004     48.306600000000003
C      48.647300000000008     48.687350000000002     46.149299999999997
C      48.568100000000008     46.143450000000001     47.589200000000005
C      49.025300000000009     47.531750000000002     45.411400000000000
C      48.917300000000004     46.334350000000001     46.148899999999998
H      47.223700000000001     50.418250000000000     50.512100000000004
H      46.673099999999998     49.001550000000002     49.338300000000004
H      47.718300000000006     48.195850000000000     51.628699999999995
H      49.326900000000002     48.614750000000001     50.932299999999998
H      48.731200000000008     50.807050000000004     48.093400000000003
H      47.034600000000005     50.070750000000004     47.813099999999991
H      47.057800000000007     46.941650000000003     49.983999999999995
H      49.058399999999999     46.711150000000004     50.498099999999994
H      48.463799999999999     49.674850000000006     45.586700000000008
H      48.535900000000005     45.227050000000006     48.167299999999997
H      48.953900000000012     47.661749999999998     44.371300000000005
H      49.020000000000003     45.192949999999996     45.932199999999995
