64

C      47.785999999999987     47.837699999999991     52.512749999999997
C      48.300399999999996     47.302399999999992     50.184750000000001
C      47.291399999999996     52.222499999999997     50.594150000000006
C      47.075000000000003     49.024599999999992     52.636350000000000
C      47.688400000000001     48.593000000000004     49.739650000000005
C      47.277299999999997     51.481200000000001     51.927450000000000
C      46.954499999999996     51.144700000000000     49.411750000000005
C      47.173199999999994     50.062100000000001     51.714950000000009
C      47.374099999999999     49.901100000000000     50.207150000000006
C      46.372900000000001     47.890500000000003     52.880350000000000
C      48.350499999999997     47.602400000000003     48.885350000000003
C      48.777599999999993     46.978099999999998     51.618150000000007
C      45.103600000000000     46.009500000000003     54.527650000000001
C      45.645600000000002     46.524999999999991     53.277750000000005
C      49.378900000000002     50.627099999999999     45.986550000000001
C      48.586000000000013     48.272499999999994     46.314050000000002
C      45.401700000000005     45.405000000000001     52.988350000000004
C      49.697599999999994     49.137299999999996     45.856650000000002
C      48.590099999999993     47.458500000000001     44.952050000000007
C      47.342799999999997     53.572599999999994     50.336050000000007
C      49.574600000000004     46.175699999999992     44.644750000000002
C      48.051700000000011     42.911299999999997     42.844850000000001
C      49.382100000000008     42.935800000000000     42.141550000000002
C      48.117000000000004     42.541600000000003     44.177750000000003
C      49.698300000000003     44.516099999999994     42.574650000000005
C      49.230500000000006     43.476500000000001     44.873750000000001
C      49.505500000000012     44.752200000000002     44.114050000000006
C      48.867699999999999     43.484499999999997     46.292050000000003
C      50.536999999999992     42.828699999999998     44.937150000000003
C      49.972900000000010     43.487200000000001     47.235250000000008
C      50.979800000000012     42.887900000000002     46.345950000000002
H      50.345300000000009     50.665199999999999     46.369150000000005
H      49.635800000000003     46.548099999999991     47.552750000000003
H      46.907899999999998     52.013999999999996     52.773249999999997
H      45.950000000000003     51.230800000000002     49.544650000000011
H      47.486099999999993     51.515000000000001     48.561650000000007
H      49.939800000000005     47.331199999999995     51.808550000000004
H      45.765100000000004     45.454200000000000     55.075049999999997
H      44.090800000000002     46.363599999999991     54.930450000000000
H      48.306000000000012     50.769499999999994     46.228850000000001
H      49.661400000000000     51.109899999999996     45.080950000000001
H      48.461200000000005     45.984700000000004     51.879250000000006
H      44.689800000000005     44.953000000000003     52.296849999999999
H      50.663700000000006     48.988000000000000     46.306650000000005
H      49.960399999999993     49.050399999999996     44.798350000000006
H      47.464299999999994     47.078400000000002     44.934850000000004
H      47.359700000000004     48.928799999999995     46.680250000000001
H      48.099699999999999     47.823899999999995     43.955250000000007
H      47.411299999999997     54.546599999999998     50.884050000000009
H      47.189599999999999     53.537199999999999     49.304050000000011
H      47.388599999999997     42.050399999999996     42.439450000000001
H      47.836600000000004     44.124099999999999     42.727650000000004
H      49.843000000000004     42.140900000000002     42.648350000000008
H      49.449000000000012     42.595100000000002     40.924950000000003
H      47.230999999999995     42.679800000000000     44.593550000000008
H      48.484700000000004     41.453400000000002     44.154050000000005
H      49.167800000000000     45.182199999999995     42.037950000000002
H      50.764200000000002     44.627600000000001     42.210050000000003
H      47.906999999999996     43.460799999999992     46.688050000000004
H      51.182500000000005     42.345100000000002     44.204850000000008
H      50.256199999999993     43.433199999999999     48.266850000000005
H      51.909199999999998     42.141599999999997     46.648550000000007
N      48.937399999999997     47.339199999999991     47.661450000000002
O      50.471599999999995     46.503399999999999     45.313050000000004
