15

C      46.728549999999998     45.716249999999988     48.864649999999990
C      48.247750000000003     50.453649999999989     47.157749999999993
C      46.620250000000006     47.061649999999993     48.225650000000002
C      48.018250000000002     49.052149999999990     47.836950000000002
C      49.189450000000001     48.365850000000002     48.399150000000006
C      46.768150000000013     48.437449999999991     47.873149999999995
C      48.944150000000000     47.232149999999997     49.240549999999999
C      47.798750000000005     46.493949999999991     48.946650000000005
H      48.774950000000004     50.421649999999993     46.238950000000003
H      46.308350000000004     44.568249999999999     48.903649999999999
H      48.959650000000003     51.431750000000001     47.788950000000000
H      47.108450000000012     50.659950000000002     46.850750000000005
H      50.078550000000000     49.058949999999989     48.395449999999997
H      45.921450000000000     49.138749999999995     47.597750000000005
H      49.860050000000008     46.797249999999998     49.761049999999997
