22

C      50.013049999999993     48.010249999999992     48.855359999999990
C      48.794550000000001     47.294849999999997     49.181390000000007
C      49.950749999999999     48.800150000000002     47.610560000000007
C      48.228650000000002     46.397049999999993     46.641260000000003
C      48.535950000000000     48.126849999999990     46.965760000000003
C      47.880150000000000     47.117049999999992     47.902259999999998
C      47.522950000000002     49.232550000000003     46.740759999999995
C      46.509750000000004     47.291749999999993     48.317459999999997
C      46.147250000000000     49.522049999999993     47.246560000000002
C      45.785950000000000     48.524249999999995     48.274559999999994
H      50.240150000000007     48.717349999999996     49.949669999999998
H      50.985549999999996     47.332849999999993     48.806259999999995
H      48.907950000000000     46.678749999999994     49.971940000000004
H      48.052050000000001     48.099750000000000     49.491503000000009
H      50.995449999999998     48.588250000000002     47.115060000000000
H      49.443550000000002     49.855649999999997     47.804159999999996
H      48.819749999999999     45.533749999999998     46.778559999999999
H      47.275950000000002     46.187049999999999     46.351659999999995
H      47.729649999999999     50.177250000000001     46.028059999999996
H      46.055850000000000     46.824550000000002     49.323758000000012
H      45.601149999999997     50.466250000000002     46.979360000000000
H      45.004550000000002     48.769449999999992     49.071340000000006
