22

C      47.571349999999995     50.102299999999993     47.232749999999989
C      46.962049999999998     51.331000000000003     46.957549999999998
C      48.175449999999991     49.270800000000001     48.436949999999996
C      49.811149999999991     47.280299999999997     47.270150000000001
C      47.755249999999997     47.895299999999999     48.776949999999999
C      48.570749999999997     46.858800000000002     48.155149999999992
C      48.533949999999997     45.409399999999998     48.070249999999987
C      46.492049999999999     47.423200000000001     49.450350000000000
C      47.477349999999994     45.040500000000002     48.967650000000006
C      46.253849999999993     45.937899999999999     49.404849999999996
H      50.459849999999996     46.441499999999998     47.062950000000001
H      48.027349999999991     49.213499999999996     46.376549999999995
H      47.027849999999994     51.864100000000008     45.940950000000001
H      46.865949999999991     51.928200000000004     47.754050000000007
H      48.124050000000004     49.769900000000000     49.330349999999996
H      49.230349999999994     49.599199999999996     48.145150000000001
H      50.226250000000000     48.125000000000000     47.818349999999995
H      49.729350000000004     47.972400000000000     46.353749999999998
H      49.310549999999999     44.778599999999997     47.542949999999998
H      45.807650000000002     48.003399999999999     50.059049999999999
H      47.770049999999991     44.071799999999996     49.471950000000000
H      45.540150000000004     45.605600000000003     50.049149999999997
