6

C      48.533349999999992     47.601099999999988     47.679299999999991
C      47.621949999999998     48.460499999999989     48.293700000000001
H      48.998350000000002     46.936399999999999     48.321600000000004
H      48.887450000000001     47.695499999999996     46.642499999999998
H      47.375749999999996     48.569899999999997     49.357500000000002
H      47.001649999999998     49.063600000000001     47.801800000000000
