22

C      46.863699999999994     47.292799999999986     45.959249999999990
C      45.819500000000005     47.628500000000003     47.164349999999999
C      48.265799999999999     47.692599999999999     45.848450000000000
C      46.384100000000004     47.463600000000000     48.732450000000000
C      48.582599999999999     48.283699999999996     47.168149999999997
C      47.811899999999994     48.159999999999997     48.406950000000009
C      49.883099999999999     48.856200000000001     47.602750000000000
C      48.443500000000000     47.756300000000010     49.660049999999998
C      50.294700000000006     49.022599999999997     49.005549999999999
C      49.607500000000002     48.287000000000006     50.109850000000009
H      46.418599999999998     47.752200000000002     45.122450000000001
H      47.249800000000008     46.327799999999996     46.296450000000000
H      45.581800000000001     48.736900000000006     46.948250000000002
H      44.846199999999996     46.991799999999998     47.085849999999994
H      48.344400000000007     48.310299999999998     45.005150000000000
H      48.909700000000001     46.774699999999996     45.567850000000000
H      45.745699999999999     47.938100000000006     49.593949999999992
H      46.511300000000006     46.386499999999998     49.150649999999999
H      50.747499999999988     49.124300000000005     46.677250000000001
H      47.791399999999996     47.378500000000003     50.392849999999996
H      51.153800000000004     49.672200000000004     49.128450000000001
H      50.110799999999998     48.163400000000010     50.994850000000000
