22

C      49.930349999999997     48.022099999999995     46.275250000000000
C      50.292150000000007     46.875799999999998     47.363050000000001
C      48.966250000000002     49.121500000000005     46.417949999999990
C      49.772350000000003     47.484400000000001     48.715649999999997
C      47.791750000000008     48.685299999999998     47.415450000000007
C      48.407250000000005     48.165600000000005     48.582549999999998
C      46.366750000000010     48.883200000000002     47.068150000000003
C      47.380350000000007     48.271399999999993     49.742949999999993
C      45.571250000000006     48.794800000000002     48.194249999999997
C      45.977050000000006     48.364700000000006     49.525250000000000
H      50.923650000000009     48.645600000000002     46.219450000000009
H      49.826950000000011     47.495600000000003     45.280749999999998
H      49.682850000000002     46.040399999999998     47.080150000000003
H      51.368150000000000     46.661999999999999     47.193849999999998
H      49.178650000000005     49.915100000000002     47.327050000000000
H      48.978950000000012     49.959600000000002     45.501249999999999
H      50.660250000000005     48.058199999999992     49.251550000000009
H      49.666150000000002     46.530600000000000     49.375850000000000
H      45.995850000000004     49.112100000000005     45.927050000000008
H      47.503550000000004     47.724499999999999     50.719250000000002
H      44.631850000000000     49.179000000000009     47.847650000000002
H      45.289550000000006     48.522300000000001     50.347149999999999
