111

C      47.905349999999991     48.207799999999992     44.681449999999998
C      46.784450000000000     47.559699999999999     43.828950000000006
C      51.314349999999997     42.443899999999999     45.115150000000000
C      48.795649999999995     46.822400000000002     45.321249999999992
C      46.794750000000001     46.052000000000000     43.421750000000003
C      51.083050000000000     43.834499999999998     45.710849999999994
C      50.364649999999997     42.273400000000002     44.107550000000003
C      49.597249999999995     47.704900000000002     44.428250000000006
C      48.199250000000006     43.840899999999998     43.183849999999993
C      49.006749999999997     45.366599999999998     44.867149999999995
C      47.913349999999994     45.156199999999998     43.727949999999993
C      49.884150000000005     44.308599999999998     45.013549999999995
C      49.320650000000001     43.399799999999999     43.885249999999999
C      47.920349999999999     49.318300000000001     45.667749999999998
C      46.605550000000001     50.178600000000003     45.336749999999995
C      45.868449999999996     49.718899999999998     44.113849999999999
C      45.626550000000002     48.178200000000004     43.708050000000000
C      48.774749999999997     47.843499999999999     47.611450000000005
C      45.263649999999998     49.678400000000003     45.715449999999990
C      48.307249999999996     49.146700000000003     47.031250000000000
C      45.533149999999999     48.444600000000001     46.617750000000001
C      49.219749999999998     46.741599999999998     46.936350000000004
C      50.493249999999989     47.353800000000000     47.372450000000001
C      45.424749999999996     45.524200000000000     43.222049999999996
C      44.216349999999998     46.227400000000003     42.830950000000001
C      44.277349999999998     47.818500000000000     43.273150000000001
C      43.176649999999995     48.546199999999999     42.651650000000004
C      42.782249999999998     45.462499999999999     42.773349999999994
C      51.901449999999997     44.572000000000003     46.844549999999998
C      45.444849999999995     45.057900000000004     44.727350000000001
C      46.714349999999996     51.563899999999997     45.866150000000005
C      48.824349999999995     52.886499999999991     48.360050000000001
C      49.728249999999996     52.381100000000004     47.192849999999993
C      52.139949999999999     44.741199999999999     51.142949999999999
C      47.225949999999997     49.910100000000000     53.209249999999997
C      52.704450000000008     45.566099999999999     50.163949999999986
C      51.266649999999998     45.222300000000004     52.165549999999996
C      47.762049999999995     48.619700000000002     53.526849999999996
C      48.584150000000001     52.250100000000003     49.641949999999994
C      50.737850000000002     51.355000000000004     47.731250000000003
C      47.746549999999999     50.663599999999995     52.075549999999993
C      53.004649999999998     47.977699999999999     49.227649999999997
C      52.428950000000000     49.285400000000003     48.793049999999994
C      49.737049999999996     46.971699999999998     52.964650000000006
C      52.274850000000001     46.998100000000001     50.110349999999997
C      50.887450000000001     46.659500000000001     52.187250000000006
C      49.002349999999993     48.355799999999995     52.871249999999989
C      49.485749999999996     51.264200000000010     49.962349999999986
C      50.647250000000000     50.954600000000006     49.189249999999987
C      48.956350000000000     50.455800000000004     51.281750000000002
C      51.318349999999995     49.701200000000007     49.792450000000002
C      51.324449999999999     47.547000000000004     51.133849999999995
C      49.584950000000006     49.315800000000003     51.773550000000000
C      50.732450000000000     48.896200000000000     50.915049999999994
C      51.862749999999998     50.845500000000008     46.915250000000000
C      52.693849999999998     49.963999999999999     47.587050000000005
C      49.512549999999997     52.437800000000003     45.646649999999994
C      50.548150000000007     51.757400000000011     44.832849999999993
C      51.916849999999997     51.365900000000003     45.396649999999994
C      48.879550000000002     45.801700000000004     53.513949999999994
C      50.212350000000001     53.714100000000002     46.052549999999997
C      47.966850000000008     52.527400000000000     45.314049999999995
C      47.768749999999997     53.862500000000004     48.096750000000000
H      52.103549999999998     41.718000000000004     45.389249999999990
H      50.568550000000002     41.403399999999998     43.495850000000004
H      47.887549999999997     43.178400000000003     42.453549999999993
H      45.536850000000001     50.665300000000002     43.559150000000002
H      44.397149999999996     50.195600000000006     45.844149999999999
H      48.243449999999996     49.932499999999997     47.890949999999989
H      48.899250000000009     45.824700000000000     47.387850000000000
H      51.366749999999996     47.795299999999997     46.973849999999999
H      50.960250000000002     46.865800000000000     48.314049999999995
H      45.593249999999998     44.613700000000001     42.350449999999995
H      44.609749999999998     46.372399999999999     41.741550000000004
H      42.505249999999997     48.071899999999999     41.989549999999994
H      43.235450000000000     49.634000000000000     43.033349999999999
H      42.859150000000000     44.290100000000002     42.693049999999999
H      42.082349999999998     45.990200000000002     42.001450000000006
H      42.500949999999996     45.750399999999999     43.797849999999997
H      52.748350000000002     44.946500000000000     46.255449999999996
H      51.769649999999999     44.117500000000000     47.950149999999994
H      51.391750000000002     45.478299999999997     47.102349999999987
H      46.161549999999998     44.280500000000004     44.904250000000005
H      44.144449999999999     45.282899999999998     44.897850000000005
H      45.738549999999996     45.970500000000001     45.357349999999997
H      45.790349999999997     52.222699999999996     46.009050000000002
H      46.835349999999998     51.515800000000006     46.980249999999998
H      52.587550000000007     43.683900000000001     51.275850000000005
H      46.168650000000000     49.981299999999997     53.606650000000002
H      53.617649999999998     45.080700000000000     49.690349999999995
H      51.255249999999997     44.283900000000003     52.966249999999988
H      47.419849999999997     47.932200000000002     54.258449999999996
H      47.904649999999997     52.580400000000004     50.429649999999995
H      47.232749999999996     51.673099999999998     52.105649999999997
H      53.917650000000002     47.922000000000004     48.921549999999996
H      53.624849999999995     49.423400000000001     46.868049999999997
H      50.056449999999998     50.922000000000004     44.368449999999996
H      50.791349999999994     52.356600000000000     43.736750000000001
H      52.532749999999993     50.782000000000004     44.567350000000005
H      52.503549999999997     52.349200000000003     45.334949999999992
H      51.144549999999995     53.662199999999991     45.859650000000002
H      49.531149999999997     54.471699999999998     45.845749999999995
H      48.282049999999998     52.267100000000006     44.369749999999996
H      47.628850000000000     53.447200000000002     45.382450000000006
H      47.015149999999998     54.295399999999994     48.661649999999995
H      47.950249999999997     54.596600000000002     47.324449999999999
H      49.060049999999990     46.661200000000001     50.001649999999998
O      50.355750000000000     47.553300000000000     43.569450000000003
O      45.514049999999997     48.101399999999998     47.659949999999995
O      48.091149999999999     45.055000000000000     53.770049999999998
S      48.209849999999989     47.670500000000004     49.595149999999990
