8

C      47.236999999999995     48.619749999999989     47.667499999999990
C      48.752699999999997     48.238749999999996     48.007600000000004
H      46.523000000000003     48.926349999999999     48.500800000000005
H      46.708800000000004     47.568150000000003     47.175599999999996
H      48.331899999999997     47.025350000000003     47.850000000000001
H      49.476999999999997     48.974649999999997     47.368000000000002
H      48.919199999999996     48.191749999999999     49.229999999999997
H      46.928899999999992     48.906350000000003     46.770000000000003
