16

C      48.444499999999991     46.027199999999993     48.237949999999998
C      46.330300000000001     46.791899999999998     47.061650000000000
C      47.447799999999994     47.107900000000001     47.898050000000012
C      48.689299999999996     47.217700000000001     47.186350000000004
C      47.539499999999997     48.178699999999999     48.875750000000011
C      49.636400000000002     48.455400000000004     47.149950000000004
C      48.263599999999997     49.375200000000000     48.670550000000020
C      49.376600000000003     49.598100000000002     47.692250000000001
H      47.678300000000000     45.307699999999997     47.965750000000000
H      49.017099999999992     46.026899999999998     49.326750000000018
H      46.656399999999998     46.084099999999999     46.356750000000005
H      45.828499999999998     47.528200000000005     46.695150000000012
H      46.843299999999992     48.192900000000002     49.712350000000001
H      50.171500000000002     47.953000000000003     46.287649999999999
H      47.975299999999997     50.018500000000010     49.661850000000015
H      49.941899999999997     50.692300000000003     47.438550000000006
