21

C      49.105049999999991     46.840049999999991     50.234695000000002
C      47.540849999999999     47.528349999999996     50.776295000000012
C      48.755549999999992     46.801349999999999     48.797635000000007
C      47.066449999999996     48.814950000000003     49.685795000000006
C      47.865850000000002     47.568350000000002     47.887235000000004
C      46.973449999999993     48.563049999999997     48.495985000000005
C      48.124749999999999     47.695249999999994     46.425005000000006
C      46.269050000000000     49.404350000000001     47.571215000000002
C      47.546450000000000     48.624450000000003     45.485925000000002
C      46.494949999999996     49.311349999999997     46.105345000000007
H      50.161650000000002     47.434649999999998     50.294495000000005
H      49.179150000000000     45.735750000000003     50.744995000000003
H      46.841349999999998     46.609450000000002     50.867995000000001
H      47.516449999999999     48.151549999999993     51.653894999999999
H      49.326450000000001     46.124350000000000     48.132985000000005
H      47.782849999999996     49.650550000000003     49.780195000000006
H      46.036249999999995     48.922750000000001     50.167395000000006
H      49.055949999999996     47.296849999999999     46.038575000000002
H      45.838349999999998     50.264249999999997     47.964055000000009
H      47.965049999999998     48.731050000000003     44.346105000000001
H      46.062549999999995     49.912849999999999     45.398735000000009
