22

C      50.762149999999991     47.647959699999987     47.904699999999998
C      50.108949999999993     46.371360000000003     48.614699999999999
C      49.495449999999991     48.609890000000000     47.163400000000010
C      48.636849999999995     46.035159999999991     47.883600000000001
C      48.311549999999997     48.609519999999996     48.147700000000000
C      47.664449999999988     47.347659999999991     48.130200000000002
C      47.886550000000000     49.921650000000000     48.650199999999998
C      46.263750000000002     47.500160000000001     48.537700000000001
C      46.611649999999997     49.931559999999998     49.257400000000004
C      45.812950000000001     48.678959999999996     49.090699999999998
H      51.170450000000002     48.639000000000003     48.224100000000007
H      51.364350000000002     47.296259999999990     46.939700000000002
H      50.749049999999997     45.436759999999992     48.468600000000009
H      49.910649999999990     46.550460000000022     49.718299999999999
H      49.901749999999993     49.645190000000007     46.991799999999998
H      49.424049999999994     48.442395999999995     46.203800000000001
H      48.757149999999996     45.962160000000019     46.891600000000011
H      48.122949999999989     45.170660000000005     48.323000000000008
H      48.507149999999996     50.829339999999995     48.708900000000000
H      45.543949999999995     46.707259999999984     48.275400000000005
H      46.171250000000001     50.818030000000000     49.796199999999999
H      44.635649999999998     48.607699999999994     49.254500000000007
