22

C      47.680799999999998     50.315099999999987     48.159049999999993
C      46.678600000000003     49.702000000000005     46.873049999999999
C      47.443799999999996     49.010200000000005     48.898049999999998
C      47.091200000000001     48.254399999999997     46.287450000000000
C      48.104700000000008     47.697799999999994     48.506850000000007
C      47.734800000000007     47.102299999999993     47.275349999999996
C      48.852500000000006     46.877199999999995     49.545349999999999
C      48.489800000000002     45.945500000000003     46.964049999999993
C      49.800100000000000     45.936600000000006     48.960150000000006
C      49.618800000000007     45.300300000000000     47.676049999999996
H      48.791300000000007     50.465600000000002     48.086849999999998
H      47.174999999999997     51.368699999999997     48.583949999999994
H      46.432299999999998     50.447700000000005     46.123649999999998
H      45.457200000000000     49.846399999999996     47.238849999999999
H      46.380099999999999     48.616499999999995     48.557049999999997
H      47.095900000000000     49.267699999999998     49.820650000000008
H      47.727199999999996     48.474600000000002     45.477150000000002
H      46.225499999999997     48.166599999999995     45.534849999999999
H      49.196300000000008     47.421799999999998     50.522849999999998
H      48.619500000000002     45.773000000000003     45.859749999999998
H      50.542800000000000     45.462100000000000     49.572249999999997
H      50.219999999999999     44.631300000000003     47.108049999999999
