23

C      45.787159999999986     46.612600000000000     47.544749999999993
C      46.788959999999996     47.655099999999997     46.688350000000000
C      46.333459999999995     46.941000000000010     49.052649999999993
C      47.297559999999997     49.262200000000000     48.780250000000002
C      47.717760000000006     47.632799999999996     48.746550000000006
C      47.669559999999997     48.486399999999996     47.675850000000004
C      49.014519999999997     47.223199999999999     49.196750000000002
C      48.916020000000010     49.401100000000007     47.178350000000002
C      50.172800000000002     47.692200000000007     48.476149999999997
C      50.322720000000011     48.789700000000003     47.543450000000000
H      51.187940000000005     48.920099999999998     46.888749999999995
H      44.812059999999995     47.169600000000010     47.500750000000004
H      45.671659999999996     45.430900000000001     47.116750000000003
H      46.074159999999999     48.199700000000000     46.015650000000001
H      47.301459999999999     46.734100000000005     46.240349999999999
H      46.092559999999999     45.835000000000001     49.215949999999999
H      45.606259999999999     47.624299999999998     49.565549999999995
H      46.054160000000003     49.191600000000001     49.095350000000003
H      48.035133000000009     49.798800000000007     49.337150000000001
H      49.028090000000006     46.758600000000008     49.984349999999999
H      49.000510000000013     49.488100000000010     46.115150000000000
H      51.153300000000009     47.103100000000005     48.538049999999998
H      48.594381000000006     50.569099999999999     47.157350000000001
