22

C      45.550299999999993     48.385249999999999     47.088299999999990
C      45.796599999999998     47.743650000000002     48.558300000000003
C      46.939799999999991     48.011150000000001     46.450000000000003
C      46.810800000000000     48.255750000000006     49.429500000000004
C      48.335200000000000     48.337550000000007     47.122600000000006
C      48.274699999999996     48.430449999999993     48.592900000000000
C      49.532699999999991     48.635149999999996     46.344600000000000
C      49.271400000000000     48.867649999999998     49.412199999999999
C      50.730400000000003     49.117249999999999     47.102999999999994
C      50.401799999999994     49.027549999999991     48.401100000000000
H      44.475200000000001     47.922750000000008     46.517799999999994
H      45.509000000000000     49.428650000000005     47.138800000000003
H      44.727999999999994     47.446050000000000     48.861400000000003
H      45.789099999999991     46.571349999999995     48.258000000000010
H      46.905199999999994     47.276150000000001     45.715299999999999
H      47.181100000000001     48.771850000000001     45.459900000000005
H      46.761799999999994     47.760149999999996     50.375399999999999
H      46.506099999999989     49.188550000000006     49.743600000000001
H      49.470099999999988     48.513450000000006     45.392899999999997
H      49.516299999999987     48.904550000000000     50.607100000000003
H      51.524799999999999     49.394549999999995     46.619699999999995
H      51.175100000000000     48.967749999999995     49.194699999999997
