22

C      45.958399999999997     48.599049999999991     46.549449999999993
C      45.983300000000007     49.191350000000007     48.029249999999998
C      47.481299999999997     48.185849999999995     46.093150000000001
C      47.203099999999999     46.334849999999996     48.025250000000007
C      47.983300000000007     47.361349999999995     47.311950000000003
C      47.204699999999995     48.161149999999999     48.368450000000003
C      49.341900000000003     47.292750000000005     47.575650000000003
C      47.630599999999994     48.753949999999996     49.677349999999997
C      49.894900000000000     47.768149999999999     48.867349999999995
C      49.004100000000001     48.304549999999999     49.907050000000005
H      45.094500000000004     47.962449999999997     46.482149999999997
H      45.835100000000004     49.300950000000007     45.723149999999997
H      45.890700000000002     50.320249999999994     47.873349999999995
H      45.020699999999998     48.855449999999998     48.475249999999996
H      47.480200000000004     47.953550000000000     45.010250000000006
H      48.022500000000001     49.141250000000007     45.844850000000001
H      46.353500000000004     45.917750000000005     47.310750000000006
H      47.690300000000001     45.679750000000006     48.696750000000002
H      49.942000000000000     46.916750000000000     46.753350000000005
H      47.011900000000004     49.480449999999998     50.200250000000004
H      50.979300000000002     47.557449999999996     48.822849999999995
H      49.259200000000000     48.497750000000003     50.989749999999994
