22

C      46.617350000000002     46.745399999999997     49.774849999999986
C      47.805250000000001     47.528599999999997     50.450050000000005
C      46.622950000000003     46.739199999999997     48.120649999999998
C      48.233350000000002     48.735700000000008     49.409649999999999
C      47.794150000000002     47.404499999999999     47.335750000000004
C      48.099350000000001     48.702700000000007     47.800749999999994
C      48.294250000000005     46.959200000000010     46.041849999999997
C      48.990949999999998     49.549999999999997     47.079750000000004
C      49.386449999999996     47.657200000000003     45.347949999999997
C      49.634149999999991     49.023700000000005     45.922049999999999
H      45.940049999999999     47.408400000000000     50.266650000000013
H      47.012949999999989     45.594700000000003     49.843950000000007
H      48.480850000000004     46.752200000000002     50.044450000000012
H      47.961150000000004     47.701300000000003     51.553150000000002
H      45.731350000000006     47.148700000000005     47.766850000000005
H      46.696650000000005     45.773200000000003     47.714550000000003
H      49.134349999999998     49.162300000000002     50.140150000000006
H      47.577950000000001     49.609300000000005     49.604050000000001
H      48.113249999999994     46.411900000000003     45.107950000000002
H      49.303550000000001     50.405299999999997     47.658450000000002
H      49.575850000000003     47.326800000000006     44.446849999999998
H      50.268649999999994     49.801299999999998     45.389650000000003
