22

C      49.937399999999997     48.573699999999995     46.892004999999990
C      49.066100000000006     48.295100000000005     45.626995000000001
C      49.970600000000012     47.485900000000001     48.079084999999999
C      47.665700000000008     48.057299999999998     45.976875000000000
C      48.561400000000006     47.103499999999997     48.293354999999991
C      47.457100000000004     47.472499999999997     47.316454999999998
C      48.201900000000002     46.788499999999999     49.593474999999998
C      46.172000000000004     47.556899999999999     47.843164999999999
C      46.923700000000004     47.103899999999996     50.189475000000002
C      46.000100000000003     47.650800000000004     49.276074999999992
H      49.590300000000006     49.642200000000003     47.206734999999995
H      51.044599999999996     48.863199999999992     46.695754999999998
H      49.137600000000006     47.408000000000001     45.021045000000001
H      49.003500000000003     49.003399999999999     44.813825000000001
H      50.404100000000007     46.468900000000005     47.781694999999999
H      50.498799999999996     47.822099999999992     48.810074999999998
H      46.879800000000003     49.078599999999994     45.702604999999998
H      47.280800000000006     47.664000000000001     45.061414999999997
H      48.973900000000008     46.357799999999997     50.206474999999998
H      45.254300000000008     47.646500000000003     47.287554999999998
H      46.448200000000007     47.020700000000005     51.186174999999999
H      44.955400000000004     48.010899999999992     49.562275000000000
