22

C      47.559349999999995     50.471549999999993     48.344699999999996
C      45.988949999999988     50.022449999999999     48.398600000000002
C      48.459649999999996     49.648650000000004     47.606400000000001
C      45.990249999999989     48.351250000000000     47.941400000000002
C      48.599749999999986     48.219149999999999     47.981300000000005
C      47.346249999999998     47.611750000000001     48.200299999999999
C      49.789949999999990     47.657950000000000     48.188299999999998
C      47.332949999999997     46.343850000000003     48.697000000000003
C      49.840049999999991     46.278250000000000     48.636499999999998
C      48.605449999999990     45.569949999999999     48.951500000000003
H      47.933249999999987     50.641950000000001     49.477400000000003
H      47.100049999999996     51.453550000000000     47.793199999999999
H      45.327050000000000     50.488750000000003     47.863300000000002
H      45.501149999999996     50.154750000000000     49.499399999999994
H      48.464649999999992     50.068849999999998     46.500600000000006
H      49.633049999999997     50.043250000000000     47.717799999999997
H      45.570250000000001     47.956049999999998     48.816199999999995
H      45.101849999999999     48.154450000000004     47.250900000000001
H      50.763249999999999     48.204850000000000     47.839100000000002
H      46.284349999999989     45.993350000000000     49.205200000000005
H      50.898150000000001     45.777050000000003     48.738500000000002
H      48.501549999999995     44.546450000000000     49.189000000000000
