22

C      48.705949999999987     47.059999999999988     49.706149999999994
C      49.071950000000001     45.662599999999998     48.851550000000003
C      47.358949999999993     46.730500000000006     49.010649999999998
C      47.645749999999992     45.528099999999995     48.076949999999997
C      47.385949999999994     48.065400000000011     46.638950000000001
C      47.184349999999995     47.935199999999995     48.098950000000002
C      46.906250000000000     49.267600000000002     46.172849999999997
C      46.597250000000003     49.142300000000006     48.731749999999998
C      46.418349999999990     50.552900000000008     46.739150000000002
C      46.152649999999994     50.400400000000005     48.211550000000003
H      48.803449999999998     47.051100000000005     50.847450000000002
H      49.000249999999994     48.118899999999996     49.222949999999997
H      49.152050000000003     44.713300000000004     49.354550000000003
H      49.847350000000006     45.752300000000005     48.012949999999996
H      47.218949999999992     47.107400000000013     45.944049999999997
H      46.626549999999995     46.588300000000004     49.889650000000010
H      47.526449999999997     45.600499999999997     46.995150000000002
H      47.269849999999991     44.435800000000000     48.524949999999997
H      46.707449999999994     49.554400000000001     45.152549999999998
H      46.391049999999993     49.093400000000003     49.688650000000003
H      46.318150000000003     51.509700000000009     46.234850000000002
H      46.193449999999999     51.564200000000000     48.630549999999999
