18

C      50.164344999999997     46.792549999999991     48.214649999999999
C      49.544444999999996     49.573850000000000     48.437349999999995
C      48.388345000000001     48.528449999999999     48.036450000000002
C      48.756444999999999     47.181050000000006     47.863450000000000
C      47.851145000000002     46.380249999999997     47.178850000000004
C      47.222044999999994     49.139150000000008     47.414549999999998
C      46.595444999999998     46.642450000000004     46.761949999999999
C      46.285145000000000     48.134549999999997     46.932050000000004
H      50.705645000000004     47.004150000000003     47.283349999999999
H      50.200244999999995     45.787150000000004     47.825350000000000
H      50.578244999999995     46.950949999999999     49.557249999999996
H      49.605045000000004     49.464750000000002     49.570549999999997
H      50.543045000000006     49.360750000000003     47.799550000000004
H      48.338544999999996     45.367849999999997     46.900750000000002
H      47.222144999999998     50.226350000000004     47.313850000000002
H      45.866744999999995     46.013650000000005     46.470849999999999
H      45.294354999999996     48.232350000000004     46.429450000000003
H      49.789545000000004     50.632150000000003     48.165949999999995
