22

C      45.420949999999991     48.464849999999998     47.556199999999990
C      46.056649999999991     49.199149999999996     48.667800000000000
C      46.026849999999996     47.091249999999995     47.202799999999996
C      47.470249999999993     48.802849999999999     49.274300000000004
C      47.664050000000003     47.148149999999994     47.557600000000001
C      48.315150000000003     47.673949999999998     48.627100000000006
C      48.709850000000003     46.504650000000005     46.618899999999996
C      49.890449999999987     47.821949999999994     48.961900000000000
C      49.970049999999986     46.353649999999995     46.944299999999998
C      50.604249999999993     47.070249999999994     48.137099999999997
H      44.353149999999999     48.678649999999998     47.505800000000001
H      45.764349999999993     49.079950000000004     46.692900000000002
H      45.297349999999994     49.686850000000000     49.295600000000000
H      45.862250000000003     50.257849999999998     48.378699999999995
H      45.849750000000000     46.550750000000001     48.258299999999998
H      45.564349999999990     46.332850000000001     46.443999999999996
H      46.959249999999997     48.203949999999999     50.310200000000002
H      48.144949999999994     49.550949999999993     49.612400000000001
H      48.217550000000003     46.202350000000003     45.689799999999998
H      50.414850000000001     48.540950000000002     49.581600000000002
H      50.650649999999985     45.742150000000002     46.206800000000001
H      51.646850000000001     47.152250000000002     48.033499999999997
