22

C      45.656849999999991     49.048249999999989     47.680790999999985
C      45.189250000000001     47.461649999999999     47.680519000000004
C      46.703050000000005     49.380750000000006     48.891135000000006
C      46.411549999999998     46.754849999999998     47.342659999999995
C      48.015250000000002     48.664549999999998     48.272424999999998
C      47.869450000000008     47.432049999999997     47.430796999999998
C      49.446850000000005     49.008749999999999     48.354545000000002
C      48.853150000000007     46.779649999999997     46.699195000000003
C      50.525550000000003     48.327649999999998     47.610719000000003
C      50.172249999999998     47.340150000000001     46.699395000000010
H      45.985150000000004     49.148350000000008     46.718295000000012
H      44.768050000000002     49.618949999999998     47.859527000000000
H      44.929650000000002     47.240449999999996     48.730404999999990
H      44.383749999999999     46.954650000000001     47.038395000000008
H      46.627350000000000     50.468350000000001     48.961984999999999
H      47.007850000000012     48.970050000000001     49.844004999999996
H      46.391250000000007     46.234749999999998     46.561995000000010
H      46.084350000000008     45.531649999999999     47.704993000000002
H      49.791350000000001     49.883550000000000     48.783985000000001
H      48.581050000000012     45.814450000000001     46.155995000000004
H      51.616250000000001     48.607149999999997     47.754852999999997
H      51.039950000000005     46.945650000000001     46.332394999999991
