31

C      46.521399999999993     48.377349999999993     46.105599999999995
C      48.451999999999998     46.210749999999997     52.079600000000006
C      46.820899999999995     49.848950000000009     46.820299999999996
C      49.373800000000003     46.998350000000009     51.181000000000004
C      45.935299999999998     47.580050000000007     44.932800000000000
C      47.145300000000006     45.690950000000008     51.732800000000005
C      47.524599999999992     48.649549999999998     47.488700000000001
C      48.668599999999998     47.580150000000010     50.073600000000006
C      45.600000000000001     46.838150000000006     47.799900000000001
C      45.446400000000004     47.407950000000007     46.458100000000002
C      46.533000000000001     46.152250000000002     50.432099999999998
C      46.850700000000003     47.406650000000006     48.230899999999998
C      47.383200000000002     47.015450000000008     49.497000000000007
C      48.947400000000002     49.122450000000008     47.911600000000000
C      49.325600000000001     48.521650000000001     49.007500000000000
C      50.810099999999998     48.989049999999999     49.466500000000003
C      46.196600000000004     47.158850000000008     43.550300000000000
C      45.196100000000001     45.743850000000002     50.560600000000001
H      47.182099999999998     50.860750000000003     46.136599999999994
H      49.125600000000006     45.792250000000003     52.848300000000002
H      46.035400000000003     50.101550000000010     47.476300000000002
H      50.354399999999998     47.417949999999998     51.164800000000000
H      46.573700000000002     45.139249999999997     52.626300000000001
H      45.052399999999999     46.045250000000003     48.244999999999997
H      49.578000000000003     49.966550000000005     47.643999999999998
H      51.325099999999999     48.748849999999997     48.467700000000001
H      51.914800000000000     48.642450000000004     49.773299999999999
H      45.120300000000000     47.353450000000002     43.151699999999998
H      46.790500000000002     46.209049999999998     43.491000000000000
H      50.686199999999999     50.162250000000007     49.459700000000005
O      44.085200000000000     45.502249999999997     50.612000000000002
