57

C      46.184199999999990     46.579849999999993     50.579850000000000
C      47.872199999999999     48.788450000000012     47.665750000000003
C      46.691799999999994     47.922450000000012     48.197550000000007
C      51.058700000000002     46.372250000000008     48.499350000000007
C      49.262599999999999     48.601849999999999     48.075050000000005
C      47.480600000000003     47.258150000000001     50.885249999999999
C      51.113199999999999     47.404250000000005     49.643450000000001
C      49.770000000000003     47.452850000000012     49.082850000000008
C      48.553300000000000     47.010350000000003     49.817049999999995
C      47.528900000000000     49.914850000000015     46.722149999999999
C      46.134000000000000     50.266450000000006     46.376549999999995
C      45.096400000000003     49.300049999999999     46.826750000000004
C      45.349100000000000     48.311550000000011     47.863450000000000
C      48.460400000000000     50.997050000000002     46.292649999999995
C      48.108699999999999     52.091650000000016     45.488050000000001
C      45.611199999999997     51.383550000000000     45.618949999999998
C      46.722499999999989     52.202550000000002     45.166250000000005
C      49.786300000000004     50.634850000000000     46.770449999999997
C      50.247599999999998     49.483650000000011     47.602750000000000
C      51.746000000000002     49.375850000000000     47.951549999999997
C      51.935299999999991     48.703150000000008     49.370149999999995
C      44.320000000000000     51.507150000000010     45.039150000000006
C      44.028500000000001     47.892949999999999     48.714449999999999
C      47.135800000000010     47.260350000000003     49.487350000000006
C      46.341600000000000     53.007550000000009     43.825850000000003
C      51.117800000000003     46.512850000000000     51.003749999999997
C      50.502800000000001     44.945850000000007     48.437849999999997
C      50.254299999999994     45.115050000000011     50.951250000000002
C      49.997000000000007     44.389250000000004     49.618549999999999
C      49.086999999999996     43.148650000000004     49.677250000000001
C      49.686500000000002     44.837550000000007     52.256450000000001
C      48.360500000000002     43.202550000000002     50.864350000000002
C      48.518200000000000     44.034550000000010     52.034850000000006
H      45.339900000000000     47.188450000000003     50.842150000000004
H      46.139400000000002     45.575350000000000     50.921750000000003
H      51.613300000000002     46.686350000000004     47.607450000000000
H      44.176899999999996     49.145050000000012     46.142949999999999
H      48.678399999999989     52.989750000000001     45.131450000000001
H      50.328300000000006     51.389250000000004     46.347750000000005
H      52.160800000000002     50.167950000000005     47.193849999999998
H      52.241399999999999     48.660950000000000     47.126850000000005
H      52.909100000000002     48.419150000000002     49.501450000000006
H      51.596600000000002     49.558350000000004     50.102550000000008
H      44.288699999999999     46.994350000000011     49.381450000000001
H      47.924599999999991     47.132350000000002     51.949349999999995
H      46.456699999999991     52.222650000000016     42.893349999999998
H      45.493699999999997     53.628050000000002     43.877449999999996
H      47.407199999999996     53.324150000000003     43.494850000000000
H      52.102899999999998     45.936150000000012     50.988749999999996
H      51.410699999999999     47.068750000000009     51.884650000000008
H      50.321599999999997     44.305450000000008     47.587450000000004
H      48.940399999999990     42.452250000000006     48.916950000000000
H      49.920999999999999     45.314150000000012     53.106650000000002
H      47.722700000000010     42.371949999999998     50.700050000000005
H      48.068000000000005     44.040950000000009     52.889650000000003
O      43.532400000000003     51.791050000000013     44.298749999999998
O      43.090899999999998     48.620350000000002     48.815950000000001
