22

C      48.450199999999995     45.386599999999994     47.594349999999991
C      47.988499999999995     45.540300000000002     49.097549999999998
C      48.066300000000005     46.663399999999996     46.648250000000004
C      48.245600000000003     47.002899999999997     49.442050000000009
C      47.779800000000002     47.994799999999998     47.126549999999995
C      47.383800000000001     48.082599999999999     48.669650000000004
C      47.442100000000003     49.202299999999994     46.478049999999996
C      46.726700000000001     49.201799999999992     49.091650000000001
C      46.994599999999998     50.593899999999991     46.899749999999997
C      46.820100000000004     50.529200000000003     48.311549999999997
H      49.603100000000005     45.286299999999997     47.590149999999994
H      48.178099999999993     44.355000000000004     47.192350000000005
H      48.522500000000001     44.783599999999993     49.686549999999997
H      47.004899999999999     44.936799999999991     49.029250000000005
H      48.922300000000000     46.713999999999999     45.963350000000005
H      47.417200000000001     46.283900000000003     45.865150000000000
H      49.241300000000003     47.209499999999991     49.620249999999999
H      47.882100000000001     46.989000000000004     50.573149999999998
H      47.335400000000000     49.484499999999997     45.426850000000002
H      46.398999999999994     49.284599999999998     50.156850000000006
H      46.864899999999999     51.644999999999996     46.349850000000004
H      46.396899999999995     51.526200000000003     48.401950000000014
