6

C      47.456599999999995     48.742519999999999     48.279799999999994
C      48.141499999999994     47.524220000000000     47.710999999999999
H      47.289999999999992     49.449119999999994     47.388600000000004
H      47.075400000000002     48.910520000000005     49.183000000000000
H      48.191899999999990     46.550880000000006     48.067000000000000
H      48.924599999999998     47.786820000000006     46.817000000000000
