22

C      48.677849999999992     45.947799999999994     46.994499999999995
C      49.828250000000004     45.983400000000003     47.880000000000003
C      47.311150000000005     46.412500000000009     47.721400000000003
C      50.018650000000001     47.429099999999998     48.470299999999995
C      47.374749999999999     47.940300000000001     48.109700000000004
C      48.693750000000001     48.324100000000001     48.535200000000003
C      46.020649999999996     48.532400000000003     48.244500000000002
C      48.767450000000004     49.557299999999998     49.231300000000005
C      46.262350000000005     49.714599999999990     48.884699999999995
C      47.451749999999997     50.146700000000003     49.431899999999999
H      48.683950000000003     44.913300000000000     46.609899999999996
H      48.838550000000005     46.495900000000006     46.140900000000002
H      49.565950000000008     45.152799999999999     48.750500000000002
H      50.745750000000008     45.502699999999997     47.561300000000003
H      47.506050000000009     45.698999999999998     48.644500000000008
H      46.235750000000003     45.922000000000004     47.353600000000000
H      50.873950000000001     47.952699999999993     47.967700000000008
H      50.394650000000006     47.279600000000002     49.411100000000005
H      45.126049999999999     48.077700000000000     47.762599999999992
H      49.579850000000000     49.984499999999997     49.453699999999998
H      45.433950000000003     50.432200000000009     49.205799999999996
H      47.106850000000001     51.086700000000000     49.859099999999998
