22

C      45.891849999999984     45.896349999999991     48.385449999999992
C      46.056349999999995     47.160750000000000     49.428549999999987
C      47.299049999999994     46.091849999999994     47.635849999999991
C      46.234650000000002     48.487349999999999     48.640949999999989
C      48.095549999999989     47.447049999999997     47.309849999999997
C      47.431049999999999     48.722850000000008     47.759249999999994
C      49.408949999999990     47.617150000000009     46.544749999999993
C      48.141249999999999     49.928049999999999     47.402349999999998
C      50.144649999999999     48.870450000000005     46.461849999999998
C      49.508550000000000     50.058949999999996     46.923149999999993
H      46.096249999999998     44.954349999999998     48.822449999999989
H      44.862650000000002     45.910050000000005     47.698650000000001
H      47.044950000000000     46.908549999999991     49.724549999999994
H      45.211050000000000     47.396749999999997     50.072749999999999
H      47.147449999999992     45.772649999999999     46.610949999999988
H      48.186549999999997     45.471150000000002     48.081549999999993
H      46.142049999999998     49.334949999999999     49.289749999999984
H      45.306950000000001     48.957049999999995     48.175049999999999
H      49.762349999999998     46.678549999999987     45.955749999999995
H      47.768549999999991     51.011649999999989     47.469849999999994
H      51.137349999999998     48.875149999999998     45.927250000000001
H      49.749949999999998     51.045650000000002     46.680349999999990
