12

C      46.918349999999990     47.509949999999989     47.113199999999999
C      47.755550000000007     48.102649999999997     48.195999999999998
C      49.207749999999997     47.258150000000001     48.411599999999993
C      47.976049999999994     48.881450000000008     46.911799999999999
H      49.988750000000003     47.707149999999999     47.819199999999995
H      47.229749999999996     46.599849999999996     46.569800000000001
H      46.011249999999997     47.635749999999994     47.046899999999994
H      47.120649999999998     48.589750000000002     49.078299999999999
H      47.680850000000000     49.875650000000000     46.714399999999998
H      49.269849999999998     46.124350000000000     48.109799999999993
H      49.511449999999989     47.501249999999999     49.430199999999999
H      48.979949999999995     48.640349999999991     46.780500000000004
