5

C      47.714799999999997     47.983449999999991     48.055450000000000
H      47.385599999999997     48.368350000000000     47.050650000000005
H      48.688900000000004     47.820349999999998     48.244550000000004
H      47.495599999999996     48.975850000000001     48.949349999999995
H      47.311099999999996     47.024149999999999     48.396350000000005
