5

C      47.837149999999994     47.686549999999997     47.773349999999994
H      47.889449999999997     48.733449999999991     48.030950000000004
H      48.887249999999995     47.266550000000009     47.722350000000006
H      47.270650000000003     47.292950000000005     48.734250000000003
H      47.112750000000005     47.549149999999997     47.265749999999997
