41

C      49.472449999999988     46.419919999999991     47.163049999999998
C      48.656949999999995     45.217869999999998     47.221449999999997
C      47.955550000000002     51.150749999999995     48.151249999999997
C      46.690150000000003     50.778119999999994     48.287550000000003
C      49.528549999999996     47.831859999999999     47.115550000000006
C      46.872450000000001     46.924709999999997     47.231850000000001
C      48.775250000000000     50.462539999999997     47.153349999999996
C      46.427750000000003     49.492380000000004     47.896149999999999
C      48.613050000000001     48.977870000000003     47.292549999999999
C      47.308949999999996     48.454209999999996     47.560150000000000
C      49.206149999999994     43.756139999999995     47.348049999999994
C      49.612049999999996     42.424529999999997     47.019449999999999
C      47.269149999999996     45.629390000000001     47.241850000000007
C      46.880250000000004     46.714040000000004     45.797450000000005
C      48.636949999999999     52.189450000000001     48.981150000000007
C      46.160750000000007     52.765349999999991     49.633850000000002
C      47.599050000000005     53.011249999999997     49.496950000000005
C      45.583849999999998     51.620349999999995     48.898050000000005
C      50.954650000000001     47.153240000000004     46.903849999999998
C      50.528949999999995     41.700291999999997     48.125650000000000
C      50.574349999999995     43.291080000000001     47.709049999999998
C      44.904449999999997     53.391650000000006     50.532950000000007
C      47.721649999999997     54.474849999999996     50.039149999999999
H      49.863950000000003     50.650020000000005     47.069849999999995
H      45.394850000000005     49.251410000000000     47.676650000000002
H      48.785349999999994     41.842565999999998     46.720949999999995
H      46.557550000000006     44.963819999999998     47.722950000000004
H      49.739549999999994     52.639449999999989     48.916249999999998
H      44.526449999999997     51.551849999999995     48.701249999999995
H      51.766549999999995     46.683129999999998     47.338550000000005
H      51.116450000000000     47.190229999999993     45.867749999999994
H      51.010549999999995     40.898949999999992     47.802150000000005
H      49.870249999999999     41.551887999999998     49.091649999999994
H      51.358350000000002     44.140819999999998     47.351450000000007
H      44.583749999999995     54.288449999999990     49.722150000000006
H      45.523550000000000     53.807150000000000     51.376250000000006
H      44.233450000000005     52.679349999999992     50.697349999999993
H      48.666950000000000     55.101050000000008     50.046650000000007
H      46.808049999999994     54.999850000000002     50.130450000000003
H      47.757549999999995     54.378650000000000     51.303949999999993
O      46.975049999999996     46.903250000000000     44.623749999999994
