21

C      46.595699999999994     48.750023999999982     46.768949999999997
C      46.691499999999998     49.364114999999998     48.153850000000006
C      47.260899999999999     47.275154999999984     46.890850000000000
C      45.697600000000001     48.527876999999989     49.095550000000003
C      48.384800000000006     47.411855000000003     47.708150000000003
C      48.067900000000002     48.759163000000001     48.455150000000003
C      49.513699999999993     46.540054999999995     48.194350000000000
C      49.208300000000001     49.380464999999987     49.153750000000002
C      50.521899999999995     47.129855000000006     49.113950000000003
C      50.315199999999997     48.601776999999998     49.346350000000001
H      46.804400000000001     50.379174999999989     48.053250000000006
H      45.516399999999997     48.827652999999998     46.248150000000003
H      46.009800000000006     47.574255000000008     49.519150000000003
H      47.205100000000002     49.272355000000005     45.993549999999999
H      47.031399999999998     46.452955000000003     46.211950000000002
H      45.375599999999999     49.009647000000001     50.006450000000001
H      44.743699999999997     48.245254999999986     48.455150000000003
H      49.310700000000004     45.582954999999998     47.918850000000006
H      48.843100000000000     50.417045000000002     49.437950000000001
H      51.256300000000003     46.671754999999990     49.814550000000004
H      51.141399999999997     49.084142000000000     49.767849999999996
