8

C      47.555749999999989     48.255149999999993     48.178549999999987
C      48.865950000000005     47.994050000000001     47.255449999999996
C      46.388050000000000     47.673450000000003     48.817049999999995
H      46.339750000000002     46.822850000000003     48.251149999999996
H      47.810650000000003     49.177149999999997     48.601150000000004
H      49.932250000000003     47.895650000000003     47.599049999999991
H      48.907950000000007     47.964150000000004     46.176649999999995
H      46.067749999999997     47.765250000000002     49.823350000000005
