22

C      48.890199999999993     47.760309499999991     45.413149999999995
C      49.498100000000001     47.195209499999997     46.815420000000003
C      47.709299999999999     48.863809499999995     45.664810000000003
C      46.512499999999996     49.322030500000004     47.899869999999993
C      47.483200000000004     48.755809499999991     47.232559999999992
C      48.567500000000003     47.909209499999996     47.903890000000004
C      47.966000000000001     47.157909499999995     49.083910000000003
C      49.604199999999999     48.740809499999990     48.556929999999994
C      48.044499999999999     47.965509499999989     50.235820000000004
C      48.974899999999998     49.040825800000000     49.867339999999999
H      48.645099999999999     46.938309499999995     44.947590000000005
H      49.695100000000004     47.901409499999993     44.805710000000005
H      49.293699999999994     46.134009499999998     47.474969999999999
H      50.484299999999998     47.256809499999996     47.427230000000002
H      48.070000000000000     49.963790500000009     45.213220000000000
H      46.893000000000001     48.867609499999993     44.889820000000000
H      46.532599999999995     49.094009499999999     48.961820000000003
H      45.515700000000002     49.559888500000000     47.412130000000005
H      47.555699999999995     46.036209499999991     49.073050000000009
H      50.233100000000000     49.405148500000003     47.977160000000012
H      47.696899999999999     47.490409499999991     51.194289999999995
H      49.574999999999996     49.586496500000003     50.536310000000000
