5

C      47.949549999999988     47.926349999999992     48.034499999999987
H      47.285249999999998     47.273449999999997     48.639599999999987
H      48.781650000000006     47.165649999999999     47.567299999999996
H      48.247049999999994     48.834350000000001     48.672499999999999
H      47.218349999999994     48.377250000000004     47.327500000000001
