6

C      47.526131499999984     48.010349999999995     48.489039999999989
C      48.438631499999985     47.870450000000005     47.544485999999992
H      46.754931499999998     48.894649999999999     48.575189999999992
H      47.473831499999989     47.239249999999998     49.135849999999991
H      48.479031499999991     48.556950000000001     46.864150000000009
H      49.245068500000002     47.105350000000001     47.498396999999997
