21

C      46.171349999999990     49.474800000000002     48.278749999999995
C      45.950150000000008     46.906000000000006     48.467050000000000
C      47.049750000000003     49.327100000000002     47.197450000000003
C      46.370950000000008     48.204400000000007     49.328450000000004
C      47.940750000000008     48.108800000000002     47.116849999999999
C      47.400350000000003     47.548100000000005     48.383949999999999
C      49.243849999999995     47.698599999999999     46.550350000000002
C      48.362650000000002     46.780699999999996     49.143550000000005
C      49.980850000000004     46.742100000000008     47.156649999999999
C      49.598650000000006     46.513400000000004     48.578149999999994
H      45.080650000000006     49.655900000000003     47.941249999999997
H      46.540450000000007     50.282100000000000     49.063850000000002
H      45.023449999999997     46.921199999999999     47.910849999999996
H      46.546350000000004     49.546300000000002     46.081050000000005
H      47.509050000000002     50.316099999999992     46.948850000000000
H      46.501050000000006     47.991300000000010     50.284250000000000
H      46.125950000000003     45.683900000000008     48.888450000000006
H      49.810050000000004     47.754199999999997     45.715750000000000
H      48.264350000000007     46.669499999999999     50.200249999999997
H      50.976550000000003     46.739800000000002     46.563350000000000
H      50.358249999999998     46.041300000000007     49.520949999999999
