87

C      54.053499999999993     45.805099999999996     51.203799999999994
C      48.781200000000005     52.653500000000001     45.793300000000002
C      48.876300000000001     54.249600000000001     45.869500000000002
C      47.506500000000003     52.173300000000005     46.336900000000000
C      48.261200000000002     55.659600000000005     46.078700000000005
C      52.014400000000009     53.891800000000011     47.281000000000006
C      53.067300000000003     47.816300000000005     48.236600000000003
C      52.895399999999995     46.632200000000005     49.379300000000001
C      53.250000000000000     50.383300000000013     45.545700000000004
C      53.081100000000006     45.315600000000003     48.813000000000002
C      53.243499999999997     48.810700000000004     45.365000000000002
C      53.053300000000007     46.476600000000012     47.874700000000004
C      53.186700000000002     51.582600000000006     44.834600000000002
C      53.165199999999999     49.453400000000009     46.703700000000005
C      53.104399999999998     49.287700000000008     48.184000000000005
C      52.643699999999995     52.909600000000005     45.124900000000004
C      51.650999999999996     53.827300000000001     45.876800000000003
C      50.055300000000003     53.613900000000001     45.822500000000005
C      53.095799999999997     52.523400000000002     43.751000000000005
C      51.764099999999999     55.253800000000005     45.942200000000000
C      53.423800000000000     47.449700000000007     45.207700000000003
C      54.344899999999996     42.456200000000003     47.513100000000001
C      45.266400000000004     49.042500000000011     44.690600000000003
C      48.093400000000003     51.101200000000013     45.185100000000006
C      42.278700000000001     49.774999999999999     46.784700000000001
C      42.809400000000004     50.455599999999997     48.066300000000005
C      43.816000000000003     48.492600000000003     44.844700000000003
C      45.833900000000000     49.713100000000004     45.801200000000001
C      44.223800000000004     50.407400000000003     48.108600000000003
C      43.495800000000003     49.367300000000007     45.958600000000004
C      44.658999999999999     49.979300000000002     46.719400000000000
C      45.589500000000001     48.699200000000005     43.322100000000006
C      46.801000000000002     49.329100000000004     42.518200000000000
C      48.063800000000001     51.108300000000007     43.649300000000004
C      46.743400000000001     50.994100000000003     45.807800000000000
C      43.003800000000005     47.520800000000001     44.015200000000000
C      44.927199999999999     47.775600000000004     42.448300000000003
C      47.927300000000002     49.945799999999998     42.935300000000005
C      43.628500000000003     47.117899999999999     42.808900000000001
C      47.878900000000002     52.506700000000002     42.924400000000006
C      49.116500000000002     48.969799999999999     43.579400000000000
C      41.012900000000002     49.439799999999998     46.203300000000006
C      46.153800000000004     52.342700000000001     45.831800000000001
C      55.482300000000009     43.962100000000007     54.339700000000008
C      51.793599999999998     49.825900000000011     48.489100000000001
C      50.327500000000001     49.314300000000003     47.666700000000006
H      55.119700000000009     45.001500000000000     52.931900000000006
H      48.755900000000004     56.345199999999998     45.050500000000000
H      47.217400000000005     55.743100000000005     45.882900000000006
H      48.436900000000001     56.098900000000000     47.061600000000006
H      53.129000000000005     53.515300000000003     47.454200000000000
H      51.073200000000000     53.555200000000006     47.957400000000000
H      43.165800000000004     46.666000000000004     41.968500000000006
H      52.613100000000003     39.654800000000002     49.445600000000006
H      53.887799999999999     49.783899999999996     48.729700000000001
H      52.976399999999998     53.057200000000002     42.769800000000004
H      51.096900000000005     55.872700000000002     45.164500000000004
H      52.603999999999999     55.866700000000002     45.782900000000005
H      42.212200000000003     50.734199999999994     48.957400000000000
H      47.277600000000000     48.508800000000001     42.122600000000006
H      42.112100000000005     47.162900000000000     44.459700000000005
H      45.543300000000002     47.738700000000001     41.614500000000000
H      48.603300000000004     50.003499999999995     41.797100000000000
H      48.881399999999999     48.553900000000006     44.569700000000005
H      49.181100000000001     48.035000000000004     42.922900000000006
H      49.965299999999999     49.493900000000004     44.113500000000002
H      40.241500000000002     49.995600000000003     46.804400000000001
H      40.818600000000004     48.931800000000003     45.252400000000002
H      44.823100000000004     50.587300000000006     48.936600000000006
H      45.049100000000003     52.729700000000001     46.092200000000005
H      53.678799999999995     43.308000000000007     49.369300000000003
H      51.857900000000001     50.793600000000005     48.027100000000004
H      51.518600000000006     49.446300000000001     49.451600000000006
H      49.613799999999998     49.862600000000000     47.621800000000000
H      49.896699999999996     48.227700000000006     47.976400000000005
H      50.617900000000006     49.481900000000003     46.572100000000006
H      54.014700000000005     41.048400000000001     49.109300000000005
O      53.298699999999997     46.686399999999999     50.931400000000004
O      54.775599999999997     44.827700000000000     51.548299999999998
O      55.138300000000001     42.801600000000001     54.385500000000000
O      53.170600000000007     40.209000000000003     48.645200000000003
O      54.134900000000002     44.548900000000003     49.258800000000001
O      53.754199999999997     46.362100000000005     45.010600000000004
O      54.662000000000006     42.342000000000006     48.697200000000002
O      47.870500000000000     53.625700000000002     42.649700000000003
O      55.758499999999998     45.156700000000001     54.160399999999996
O      53.930400000000006     42.642000000000003     46.375100000000003
