40

C      50.497900000000001     49.670949999999998     49.624799999999993
C      50.722700000000010     49.615150000000000     51.245600000000003
C      49.687500000000007     48.220950000000002     49.380500000000005
C      49.386500000000005     49.022750000000002     52.073399999999999
C      48.492899999999999     48.351249999999993     49.848199999999999
C      48.143900000000009     48.517449999999997     51.249699999999997
C      47.421300000000009     47.995149999999995     48.989699999999999
C      47.065600000000011     47.746949999999998     51.841799999999999
C      46.079000000000001     47.431449999999998     49.370000000000005
C      46.221100000000000     47.170850000000002     50.780700000000003
C      47.680500000000002     46.644449999999999     45.445600000000006
C      44.979599999999998     47.236649999999997     48.323900000000002
C      46.365500000000004     46.349849999999996     46.220900000000000
C      45.527800000000006     47.382450000000006     46.818800000000003
C      46.475400000000000     46.242350000000002     44.750800000000005
C      44.922699999999999     48.529749999999993     46.189900000000002
C      45.598800000000004     47.372550000000004     44.067200000000000
C      44.923400000000008     48.456450000000004     44.724700000000006
C      47.265500000000010     49.286649999999995     43.948799999999999
H      51.516800000000011     49.512450000000001     48.941900000000004
H      49.959099999999999     50.714449999999999     49.275700000000001
H      51.128400000000006     50.569050000000004     51.807600000000001
H      51.733899999999998     49.041250000000005     51.461499999999994
H      49.525500000000001     47.909750000000003     48.255200000000002
H      50.380400000000002     47.315250000000006     49.511600000000001
H      49.206400000000009     49.962350000000001     52.409600000000005
H      49.607000000000006     48.591250000000002     53.051200000000001
H      47.437600000000010     47.963049999999996     47.876300000000001
H      47.070900000000002     47.742050000000006     52.856299999999997
H      45.400100000000002     46.932149999999993     51.358899999999998
H      48.559699999999999     46.543349999999997     44.649300000000004
H      48.304400000000008     47.579750000000004     46.028500000000001
H      44.266100000000002     47.959249999999997     48.460300000000004
H      44.549900000000001     46.166249999999998     48.481100000000005
H      46.208300000000001     45.285550000000001     44.034900000000000
H      44.582100000000004     49.500349999999997     46.639700000000005
H      45.459499999999998     47.304749999999999     42.948799999999999
H      44.433600000000006     49.226650000000006     44.069200000000002
O      47.023100000000007     48.226349999999996     43.382399999999997
O      47.639100000000006     50.331549999999993     44.471800000000002
