22

C      45.512599999999999     48.727199999999996     48.379489999999990
C      45.691900000000004     47.602499999999992     49.322110000000009
C      46.529300000000006     48.871099999999998     47.160470000000004
C      47.216500000000011     47.104199999999992     49.565250000000006
C      48.018300000000011     48.602999999999994     47.289079999999998
C      48.166400000000010     47.831499999999991     48.460319999999996
C      49.278800000000004     49.119099999999989     46.526070000000004
C      49.462900000000005     47.719899999999996     49.214150000000004
C      50.515799999999999     49.256900000000002     47.177729999999997
C      50.473399999999998     48.472099999999998     48.449620000000010
H      44.406700000000001     48.569099999999992     47.889629999999997
H      45.165800000000004     49.760099999999994     48.781419999999997
H      45.049300000000002     46.695599999999999     49.072260000000000
H      45.354600000000005     47.996899999999997     50.338520000000003
H      45.979500000000002     48.131900000000002     46.571830000000006
H      46.420299999999997     50.005700000000004     46.822680000000005
H      47.340600000000009     45.994299999999996     49.654710000000009
H      47.747900000000001     47.093299999999999     50.479960000000005
H      48.829000000000008     49.519599999999997     45.520039999999995
H      49.588600000000000     47.603700000000003     50.250699999999995
H      51.406800000000004     49.655699999999996     46.602890000000002
H      51.593299999999999     48.301400000000001     48.271690000000007
