21

C      49.051399999999987     47.451200000000000     46.710749999999997
C      47.842099999999995     46.299900000000008     47.008750000000006
C      49.283200000000001     48.137500000000003     47.975650000000002
C      49.697399999999995     47.480100000000007     49.320650000000001
C      48.137799999999991     47.669400000000003     49.042750000000012
C      47.270800000000001     46.397300000000008     48.461750000000002
C      47.528199999999991     49.128000000000007     49.222150000000006
C      46.496400000000001     46.948800000000006     47.326450000000001
C      46.764199999999995     49.527000000000008     48.028750000000002
C      46.475800000000000     48.329400000000014     47.172750000000008
H      48.839099999999995     48.213700000000010     45.870450000000005
H      49.916400000000003     46.814500000000002     46.562650000000005
H      47.830499999999994     45.356100000000005     46.316650000000003
H      47.171999999999990     45.605400000000003     48.932250000000010
H      49.568999999999996     49.121100000000006     47.873950000000008
H      50.467700000000001     46.964900000000007     48.693550000000002
H      50.139499999999991     48.349300000000007     50.129549999999995
H      47.861600000000003     49.834000000000003     49.968250000000005
H      45.532299999999999     46.226600000000005     47.168450000000007
H      46.378200000000000     50.643899999999995     47.855149999999995
H      46.298899999999996     48.379100000000008     46.016750000000002
