20

C      48.781099999999995     51.129814999999986     47.636899999999997
C      47.981600000000007     49.549595000000011     49.675600000000003
C      47.289000000000001     48.364095000000006     49.959800000000008
C      47.681900000000006     47.708794999999995     48.589999999999996
C      48.341100000000004     48.457195000000006     47.745100000000001
C      48.475900000000003     49.908495000000009     48.280900000000003
C      47.315300000000001     46.277795000000026     48.024899999999995
C      47.469600000000007     45.848495000000014     46.419400000000003
C      48.691200000000002     44.991394999999997     46.316099999999999
H      47.909300000000002     50.457302999999996     50.241300000000003
H      46.718100000000000     47.923695000000009     50.787599999999998
H      48.349400000000003     44.077895000000005     46.911700000000003
H      48.399800000000006     48.363595000000032     46.648499999999999
H      47.761299999999999     45.581695000000025     48.812500000000000
H      46.277000000000001     46.421994999999995     48.217800000000004
H      46.819700000000005     45.147595000000024     46.287900000000000
H      47.312199999999997     46.758394999999993     45.879700000000000
H      49.722999999999999     45.451295000000002     46.722799999999999
H      48.750700000000002     44.735194999999997     45.212400000000002
O      48.966000000000001     51.922104999999995     46.791300000000000
