8

C      48.114099999999993     48.770849999999996     47.542249999999996
C      47.842900000000000     47.614750000000001     48.465949999999999
H      48.116300000000003     48.476550000000003     46.478749999999998
H      49.136800000000001     49.123449999999998     47.894150000000003
H      48.041300000000000     47.977350000000001     49.521250000000002
H      46.863199999999999     47.160649999999997     48.525750000000009
H      48.331600000000002     46.577649999999998     48.123150000000003
H      47.228100000000005     49.422350000000002     47.830450000000006
