22

C      45.452319999999993     47.039149999999992     47.789249999999988
C      46.205069999999992     45.741749999999996     48.070350000000005
C      46.254170000000002     48.307249999999996     48.276949999999999
C      47.900570000000002     45.694850000000002     48.137249999999995
C      47.652670000000001     48.453649999999996     48.069149999999993
C      48.384869999999999     47.230749999999986     48.116650000000007
C      48.305270000000000     49.753749999999997     48.243750000000006
C      49.743570000000005     47.413950000000000     47.836050000000000
C      49.694369999999992     49.833550000000002     47.894050000000007
C      50.462369999999993     48.676849999999988     47.581350000000000
H      45.088740000000001     47.255549999999999     46.663550000000001
H      44.534930000000003     46.976849999999999     48.540549999999996
H      46.384670000000000     45.023550000000000     47.230050000000006
H      45.756270000000001     44.917249999999996     48.823949999999996
H      45.876170000000002     49.181950000000001     47.741749999999996
H      46.192570000000003     48.452849999999998     49.336449999999999
H      48.397170000000003     45.080950000000001     47.408749999999998
H      48.211570000000002     45.266949999999994     49.249849999999995
H      47.826770000000010     50.702649999999991     48.443250000000006
H      50.333470000000005     46.631149999999991     47.713750000000005
H      49.708269999999999     51.082750000000004     48.092950000000002
H      51.465069999999997     48.550550000000001     47.435150000000007
