22

C      49.740049999999997     46.274099999999997     48.977750000000000
C      50.305249999999994     47.677999999999997     48.510449999999999
C      48.259850000000000     46.898099999999999     49.206550000000000
C      50.003150000000012     48.373699999999999     47.341650000000008
C      47.768750000000004     48.031199999999998     48.463850000000001
C      48.429349999999999     48.906999999999996     47.540749999999996
C      46.305850000000000     48.221400000000003     48.553249999999998
C      47.941749999999999     49.730099999999993     46.479949999999995
C      45.746350000000000     48.924399999999991     47.430250000000008
C      46.511250000000004     49.621899999999997     46.441750000000006
H      49.664850000000001     45.680800000000005     48.010050000000000
H      50.482050000000008     45.848299999999995     49.718750000000007
H      50.054150000000000     48.546199999999999     49.263150000000003
H      51.274149999999999     47.573099999999997     48.772550000000003
H      47.431950000000001     46.270899999999997     49.577549999999995
H      48.309550000000002     47.167699999999996     50.265949999999997
H      50.610050000000001     49.251599999999996     46.812850000000005
H      50.105950000000000     47.659300000000002     46.464649999999999
H      45.753250000000001     47.516899999999993     49.414350000000006
H      48.583449999999999     50.170500000000004     45.734050000000003
H      44.725850000000001     49.169100000000000     47.330050000000007
H      45.864450000000005     50.319199999999995     45.935350000000007
