135

C      41.016780999999995     45.822999999999993     44.526629999999990
C      42.234529999999992     45.123899999999999     44.751329999999996
C      47.662890000000004     50.858100000000000     44.637029999999996
C      41.169830999999995     46.907099999999986     41.823329999999999
C      43.154820000000001     44.599600000000002     43.812930000000009
C      45.426230000000004     51.137400000000007     45.459829999999997
C      44.795420000000000     52.595299999999995     45.342430000000007
C      43.801159999999996     46.918799999999990     42.660330000000002
C      45.105269999999997     47.607199999999992     43.082629999999995
C      42.533559999999994     46.363700000000001     42.033829999999995
C      43.277460000000005     45.623899999999999     42.690129999999996
C      45.522549999999995     49.747300000000003     44.730930000000001
C      44.836410000000001     48.947300000000006     43.761430000000004
C      39.791700000000006     46.223599999999998     45.342030000000008
C      39.825099999999985     45.707199999999993     46.564329999999998
C      42.289549999999998     44.130400000000002     47.518730000000005
C      42.258790000000005     44.459099999999999     46.079130000000006
C      38.957500000000003     47.255199999999988     44.681830000000005
C      38.198600000000027     48.007600000000004     45.742129999999996
C      41.221379999999996     45.036800000000007     47.018029999999996
C      38.597799999999999     45.737400000000001     47.201430000000002
C      39.363000000000014     47.461499999999994     43.343029999999999
C      40.447121000000003     46.480299999999993     43.182429999999997
C      40.349145000000000     47.456899999999990     40.865229999999997
C      45.589409999999994     49.022799999999997     42.353229999999996
C      44.240529999999993     43.578700000000005     43.922629999999998
C      44.578209999999999     43.171600000000005     45.377930000000006
C      46.531220000000005     50.335400000000000     45.448729999999998
C      46.669260000000001     49.487900000000003     46.698729999999991
C      48.708099999999995     44.224899999999998     46.922730000000001
C      48.332839999999997     41.521800000000006     50.892830000000004
C      47.087420000000002     40.931000000000004     51.493330000000000
C      46.126290000000004     41.643200000000000     46.851129999999998
C      48.521650000000001     41.844199999999994     49.415230000000001
C      45.922769999999993     41.032299999999999     50.684830000000005
C      47.571489999999997     41.603100000000005     47.100330000000000
C      45.404480000000000     41.177200000000006     47.947330000000001
C      47.421690000000005     41.537100000000002     48.484229999999997
C      46.142590000000006     41.256800000000005     49.289529999999999
C      48.917659999999998     41.877000000000002     52.286130000000000
C      48.077040000000004     41.297000000000004     53.494129999999998
C      48.644460000000002     41.590100000000000     54.860219000000015
C      46.912049999999994     40.656200000000005     52.963830000000002
C      51.258299999999998     42.389900000000004     50.913930000000001
C      50.238299999999995     42.378700000000002     51.938829999999996
C      51.216299999999997     42.386900000000004     49.411630000000002
C      50.003720000000001     41.856000000000002     48.915329999999990
C      50.221100000000000     41.759700000000002     47.336129999999997
C      49.108480000000007     41.641600000000004     46.338430000000002
C      44.753859999999996     40.186200000000007     51.432330000000007
C      45.365349999999999     38.980100000000000     52.380830000000003
C      45.846359999999997     39.787900000000000     53.767530000000001
C      51.443999999999996     42.645500000000006     52.348430000000000
C      49.351300000000002     40.989100000000001     45.015429999999995
C      49.662320000000001     43.036200000000001     46.329630000000009
C      52.538199999999996     43.133199999999995     48.866029999999995
C      45.764489999999995     42.061299999999996     45.461330000000004
C      54.909699999999994     41.532400000000003     53.534030000000001
C      55.664299999999997     40.387800000000006     53.097029999999997
C      53.438599999999994     41.736100000000000     53.078829999999989
C      55.401500000000006     39.312199999999997     51.976529999999997
C      57.161300000000004     40.174600000000005     52.860629999999993
C      56.482199999999992     38.431800000000003     51.733429999999998
C      57.649500000000010     38.862100000000005     52.418530000000004
C      45.141300000000001     53.299199999999999     46.703929999999993
C      46.591219999999993     53.773500000000006     46.487629999999996
C      44.262400000000007     54.316799999999994     47.252429999999997
C      46.748069999999998     55.131400000000006     45.515429999999995
C      44.256430000000002     55.682499999999990     46.250129999999999
C      45.351379999999992     55.808299999999988     45.308229999999995
C      43.050589999999993     56.335500000000003     46.334930000000000
C      45.062429999999992     56.707000000000001     44.252030000000005
C      42.966100000000004     57.352399999999996     45.269829999999999
C      43.976409999999994     57.635799999999989     44.389730000000000
C      47.618739999999995     44.894100000000002     46.138929999999995
H      48.434030000000000     50.225100000000005     44.371530000000007
H      43.716660000000005     52.656299999999995     45.426929999999999
H      45.252540000000003     53.106199999999987     44.485529999999997
H      45.948810000000002     47.143499999999989     43.667730000000006
H      42.475130000000000     43.443400000000004     48.382429999999992
H      38.926099999999984     47.903999999999996     42.485730000000004
H      39.288800000000002     47.821799999999996     40.929630000000003
H      40.835871000000004     48.154599999999995     40.051429999999996
H      45.251290000000004     49.692699999999988     41.642030000000005
H      46.602470000000004     49.276599999999988     42.254530000000003
H      44.193760000000005     42.923899999999996     42.909329999999997
H      45.179329999999993     44.149300000000004     43.360029999999995
H      43.611709999999995     42.788099999999993     45.839330000000004
H      44.745719999999999     44.146800000000006     46.005229999999990
H      45.874029999999998     49.527700000000003     47.562629999999999
H      47.688210000000005     49.095999999999997     46.753230000000002
H      46.742240000000002     48.770999999999994     45.760729999999995
H      49.376429999999999     45.046699999999994     47.244629999999994
H      47.890279999999997     43.583599999999997     47.335629999999988
H      44.222089999999994     41.236299999999993     47.720129999999997
H      44.365440000000000     40.790100000000002     52.166229999999999
H      43.841310000000000     39.915399999999998     50.819029999999998
H      44.610269999999993     38.202400000000004     52.561130000000006
H      46.122720000000001     38.416199999999996     51.916629999999991
H      45.041250000000005     40.647200000000005     54.183229999999988
H      46.187799999999996     39.118999999999993     54.470230000000001
H      49.405279999999998     39.818300000000001     44.980730000000001
H      50.345400000000005     41.709300000000006     44.791829999999997
H      48.603619999999992     41.308600000000006     44.304829999999995
H      51.225500000000004     41.593499999999999     46.885129999999997
H      50.634000000000000     43.381899999999995     45.648830000000004
H      53.502799999999993     42.806300000000000     49.106130000000007
H      52.499899999999997     44.151500000000006     49.304629999999996
H      52.469400000000000     43.097500000000004     47.703429999999997
H      46.817360000000001     42.302299999999995     45.152729999999998
H      45.728420000000000     41.101400000000005     44.792829999999988
H      53.324199999999998     40.789999999999999     52.646029999999989
H      55.403399999999998     42.404299999999999     54.094030000000004
H      54.442299999999996     39.090600000000002     51.370329999999996
H      57.902900000000010     40.879500000000000     53.359029999999997
H      56.261699999999998     37.605499999999999     51.105930000000001
H      58.478500000000004     38.156900000000000     52.693629999999992
H      43.394709999999996     53.945199999999993     48.026229999999998
H      47.225310000000000     52.956899999999997     46.100830000000002
H      47.039459999999998     54.096100000000000     47.611929999999994
H      45.142559999999996     52.425199999999997     47.407030000000006
H      45.020360000000004     54.658600000000000     47.982129999999998
H      47.519730000000003     55.235499999999988     44.795330000000007
H      46.982740000000000     55.833599999999997     46.294730000000001
H      42.102960000000003     56.339099999999995     47.097130000000000
H      45.720739999999992     56.876899999999992     43.488630000000001
H      42.053249999999998     57.823900000000002     45.039629999999995
H      43.954240000000006     58.394500000000001     43.534729999999996
H      47.175280000000001     45.957699999999996     46.487729999999999
O      47.564609999999995     51.966400000000000     44.074730000000002
O      37.521499999999996     45.838000000000001     47.541429999999998
O      37.522200000000019     48.603500000000004     46.326830000000001
O      52.306200000000004     42.236299999999993     53.448130000000006
O      48.821009999999994     41.678099999999993     55.948570000000004
O      47.628959999999999     44.594599999999993     44.951329999999999
