22

C      49.990549999999992     48.897949999999994     49.687149999999988
C      48.419049999999999     48.796550000000003     50.144810000000007
C      50.232650000000000     48.710749999999997     48.157659999999993
C      48.933949999999996     46.737349999999999     47.166209999999992
C      48.824550000000002     48.232650000000000     47.703949999999992
C      47.834850000000003     48.358249999999998     48.768789999999996
C      48.400750000000002     47.873350000000002     46.246520000000004
C      46.463549999999998     48.302149999999997     48.468900000000005
C      46.961749999999995     47.933850000000000     45.975079999999991
C      46.040649999999999     48.171750000000003     47.037430000000001
H      50.043949999999995     50.168849999999999     49.763289999999998
H      50.702950000000001     48.428049999999999     50.423329999999993
H      48.036649999999995     49.731250000000010     50.474440000000001
H      48.285750000000000     48.097450000000002     50.821560000000005
H      51.003050000000002     47.873750000000001     48.068159999999992
H      50.478650000000002     49.593049999999998     47.590019999999996
H      49.925049999999999     46.397550000000003     46.386099999999999
H      48.497249999999994     45.831150000000001     47.478819999999999
H      49.081149999999994     48.104750000000003     45.387419999999992
H      45.962150000000001     48.383250000000004     49.471800000000002
H      46.187550000000002     47.553049999999999     45.178439999999995
H      44.996949999999998     48.240150000000000     46.689650000000000
