21

C      49.055049999999994     45.962750000000000     47.628949999999996
C      50.238450000000000     47.047449999999998     47.417250000000003
C      48.107849999999999     46.335249999999988     48.780450000000002
C      49.436749999999989     48.279849999999996     46.875950000000003
C      47.645449999999997     47.698949999999996     48.599550000000008
C      48.310350000000000     48.622150000000005     47.713149999999999
C      46.388850000000005     47.950450000000004     49.286650000000009
C      47.531949999999995     49.968549999999993     47.785749999999993
C      45.939549999999997     49.292649999999995     49.580550000000002
C      46.414149999999992     50.294250000000005     48.675650000000005
H      49.272349999999989     44.946250000000006     47.644050000000007
H      48.329349999999991     46.255849999999995     46.932250000000003
H      50.999849999999995     47.140150000000006     46.536549999999998
H      50.608649999999997     47.280449999999988     48.631149999999998
H      47.420950000000005     45.741249999999994     49.281450000000007
H      50.090349999999987     49.387249999999995     46.808850000000000
H      49.068749999999994     48.061349999999990     45.938150000000000
H      45.773250000000004     47.221850000000003     49.794150000000002
H      47.878550000000004     50.860749999999996     47.427550000000004
H      45.000150000000005     49.516850000000005     50.061850000000000
H      45.756050000000002     51.053749999999994     48.718450000000004
