24

C      48.765449999999987     46.842999999999989     46.046250000000001
C      48.860449999999993     49.372000000000000     48.210750000000004
C      50.257449999999999     46.549199999999999     48.198150000000005
C      45.343550000000000     50.218000000000004     49.415350000000004
C      48.929049999999997     46.936400000000006     47.494550000000011
C      48.076249999999995     47.978100000000012     47.958450000000006
C      47.881650000000000     50.322699999999998     48.876750000000008
C      48.959550000000000     45.601100000000002     48.219450000000002
C      46.689450000000001     48.082799999999992     48.526150000000008
C      46.714350000000003     49.526800000000009     48.858150000000009
H      49.154050000000005     44.650999999999996     47.714950000000009
H      49.460649999999994     46.028700000000001     45.508850000000002
H      49.078449999999997     47.769599999999997     45.552150000000005
H      49.351450000000007     49.749700000000004     47.340050000000005
H      47.732650000000000     46.870499999999993     45.920450000000010
H      51.069250000000004     45.943600000000004     47.576550000000005
H      50.314150000000005     47.543400000000005     48.783250000000002
H      45.493850000000002     51.287400000000005     49.262850000000007
H      44.930749999999996     49.408400000000000     48.584450000000004
H      47.920849999999994     51.349000000000004     49.114550000000001
H      47.966050000000003     45.841099999999997     48.706049999999998
H      45.782950000000007     47.453000000000003     48.358950000000014
H      45.267350000000000     49.833500000000001     50.491149999999998
H      49.817749999999997     49.083100000000002     48.848750000000003
