5

C      48.185999999999993     48.018399999999993     47.841314999999994
H      48.757999999999996     49.001700000000000     48.146845000000006
H      48.223000000000013     46.998300000000000     47.192895000000000
H      47.242000000000004     48.323300000000003     47.426465000000000
H      48.200699999999998     47.560100000000006     48.807105000000000
