18

C      45.731049999999989     49.575549999999993     46.511919999999989
C      49.761049999999997     46.349950000000000     47.924050000000001
C      48.201149999999998     45.768349999999998     47.737479999999998
C      48.072149999999993     48.202649999999998     48.719879999999996
C      47.901949999999999     49.394349999999996     49.468899999999998
C      47.971349999999994     49.519050000000000     48.083940000000005
C      48.643749999999997     46.782280000000000     48.856940000000002
C      47.303649999999998     49.877450000000003     46.740040000000000
H      45.469449999999995     50.163850000000004     47.392670000000003
H      45.412149999999997     48.673650000000002     46.742609999999992
H      45.483849999999997     50.060650000000003     45.506450000000001
H      50.265049999999995     46.559339999999999     46.828240000000001
H      47.853650000000002     49.487749999999998     50.493549999999999
H      48.126349999999988     46.181689999999996     49.637830000000001
H      50.587850000000003     46.676710000000000     48.696379999999998
H      46.879449999999991     50.996549999999999     46.632109999999990
H      48.165949999999995     50.034249999999993     46.109569999999998
O      47.425149999999988     45.003450000000001     47.371929999999999
