56

C      43.085449999999994     44.250649999999993     49.481314999999988
C      44.039049999999996     45.365050000000004     49.952685000000002
C      49.591349999999998     50.083649999999999     47.002904999999991
C      46.457150000000006     52.432750000000006     44.067523999999992
C      42.565950000000001     43.939450000000001     48.146454999999996
C      49.521049999999995     51.241650000000000     46.080584999999992
C      47.825550000000000     52.225249999999996     44.425325999999991
C      48.470050000000008     49.376349999999995     47.611734999999996
C      44.409849999999999     46.268050000000009     48.867644999999996
C      45.641750000000002     51.252550000000006     44.253723999999991
C      42.452850000000005     44.671650000000007     45.909784999999992
C      42.777650000000001     45.540750000000003     44.852834999999992
C      44.189050000000002     47.960050000000003     44.218111999999991
C      46.791649999999997     47.756849999999993     46.924674999999993
C      43.190049999999999     44.963349999999998     47.240514999999995
C      48.076850000000000     51.222150000000006     45.483194999999995
C      47.509350000000005     48.955049999999993     46.665074999999995
C      43.590250000000005     46.818149999999996     45.116884999999996
C      44.113049999999994     46.162450000000000     47.602724999999992
C      45.973350000000003     50.026649999999997     44.816624999999995
C      45.355250000000005     48.579850000000000     44.858314999999990
C      45.499550000000006     47.767050000000005     46.213334999999994
C      47.172350000000002     50.023050000000005     45.672754999999995
C      44.252050000000004     47.051150000000000     46.449214999999995
C      42.314749999999997     43.399949999999997     50.449484999999996
C      42.380950000000006     43.987349999999999     51.717754999999997
C      43.039250000000003     45.136050000000004     52.242174999999989
C      44.077850000000005     45.618550000000006     51.409154999999998
C      52.337249999999990     50.510449999999999     47.293884999999996
C      50.959949999999999     49.868550000000006     47.642044999999996
C      52.124249999999996     51.647250000000007     46.269154999999991
C      50.809350000000002     51.667149999999999     45.553664999999995
C      51.331350000000008     48.468849999999996     47.931494999999991
C      53.339049999999993     52.381549999999997     45.949494999999992
C      45.771149999999999     47.821750000000002     43.646404999999987
H      46.209750000000007     53.347050000000003     43.384504999999990
H      41.899650000000001     43.260150000000003     47.636204999999990
H      48.637050000000009     52.918950000000002     44.136619999999994
H      48.796849999999999     48.415849999999999     48.040134999999992
H      47.992550000000001     49.953250000000004     48.295694999999995
H      45.101549999999996     47.010150000000003     49.347304999999992
H      44.714449999999999     51.514950000000006     43.599605000000011
H      41.849049999999998     43.905650000000001     45.490254999999991
H      42.648450000000004     45.514249999999997     43.638904999999994
H      45.538850000000004     48.379849999999998     42.606705000000005
H      46.787950000000002     47.048650000000002     47.834584999999990
H      41.649650000000001     42.652949999999997     50.123524999999994
H      41.899850000000001     43.194550000000000     52.282334999999989
H      43.350749999999998     45.308250000000001     53.393294999999995
H      44.830450000000006     46.409450000000000     51.532934999999995
H      53.078349999999993     50.478450000000002     48.073254999999996
H      50.997450000000008     52.576950000000004     45.012264999999992
H      45.713850000000001     46.904550000000000     43.279705000000007
H      43.305850000000000     48.071350000000002     43.689440609999991
O      51.522849999999998     47.365149999999993     48.068024999999992
O      54.350349999999999     52.860850000000006     45.728894999999994
