34

C      47.810800000000000     48.387149999999991     48.200599999999994
C      48.126100000000001     47.727449999999990     49.511299999999999
C      52.163199999999996     49.868949999999998     48.655399999999993
C      48.696100000000008     49.160649999999990     47.250599999999999
C      49.519900000000000     47.831149999999994     49.881499999999996
C      51.271700000000003     50.189349999999990     47.574599999999997
C      51.582500000000003     49.066450000000003     49.701799999999999
C      50.018999999999998     49.430349999999990     47.852600000000002
C      50.265300000000003     48.869249999999994     49.259200000000000
C      46.588799999999999     47.793549999999996     47.501100000000001
C      45.765000000000008     46.685249999999996     48.225400000000000
C      46.019799999999996     46.553449999999998     49.642400000000002
C      47.320799999999998     46.808250000000001     50.363899999999994
C      46.302200000000006     47.877949999999998     45.967199999999998
C      44.460100000000004     46.253050000000002     46.005499999999991
C      44.703300000000006     45.998549999999994     47.443799999999989
C      47.251899999999999     48.636249999999990     45.343899999999998
C      43.678400000000003     45.340350000000001     48.264299999999999
C      52.434300000000000     48.391449999999992     50.897599999999990
H      48.742899999999999     50.030349999999999     45.148499999999991
H      44.775300000000009     47.756549999999990     44.557399999999994
H      53.224499999999999     50.071049999999985     48.794300000000000
H      49.922800000000002     47.339950000000002     50.673499999999997
H      51.495899999999999     50.815550000000002     46.747399999999992
H      51.839999999999996     48.217149999999990     51.710900000000002
H      45.319899999999997     46.163950000000000     50.304299999999991
H      47.857800000000005     46.696050000000000     51.319299999999991
H      43.653900000000000     45.759749999999997     45.516299999999994
H      47.119199999999999     48.447649999999996     44.289099999999998
H      53.053800000000003     47.559649999999991     50.611499999999999
H      52.921500000000002     49.353549999999998     51.222499999999989
N      45.087600000000002     47.401849999999996     45.455999999999996
N      48.273199999999996     49.392849999999996     45.939500000000002
O      42.775500000000001     45.184449999999998     48.921500000000002
