6

C      48.345849999999992     47.720864999999996     48.470449999999985
C      47.689049999999995     48.407395000000008     47.369750000000003
H      48.261749999999999     46.346715000000003     48.790249999999993
H      49.007750000000001     48.326245000000000     49.167149999999999
H      46.992249999999999     47.655815000000004     46.832850000000001
H      47.791649999999997     49.653284999999997     47.320950000000003
