17

C      47.404799999999987     48.027319999999996     47.921399999999991
C      47.196599999999997     48.927620000000005     48.995799999999996
C      48.323899999999995     49.485090000000014     49.769100000000002
C      49.615699999999997     48.982830000000007     49.212599999999995
C      49.798600000000008     48.259020000000007     47.988699999999994
C      48.669999999999987     47.810770000000005     47.178899999999999
C      45.990499999999997     47.804670000000009     47.284199999999998
C      49.228999999999999     46.787564000000003     45.985599999999998
H      46.329999999999998     49.176370000000006     49.296199999999999
H      48.286699999999996     50.217160000000007     50.600100000000005
H      50.481400000000001     49.174610000000015     49.824199999999998
H      50.672100000000000     48.157160000000005     47.643999999999998
H      49.436999999999998     45.782839999999993     46.560299999999998
H      50.038799999999995     47.416000000000004     45.479099999999995
H      48.330399999999997     46.515659000000007     45.399899999999995
H      45.327900000000000     47.323270000000008     47.903899999999993
O      45.917699999999996     48.422670000000011     46.203799999999994
