22

C      47.401849999999996     50.041399999999996     48.810500000000005
C      47.712450000000004     49.343999999999994     50.142300000000006
C      46.836849999999998     49.186399999999992     47.695000000000007
C      48.245249999999999     47.825199999999995     50.336500000000001
C      47.867750000000001     47.951099999999997     47.847600000000000
C      48.661249999999995     47.197499999999991     48.804900000000004
C      47.981549999999999     47.435000000000002     46.505600000000001
C      49.401150000000001     46.046700000000001     48.660300000000007
C      49.111149999999995     46.588299999999990     46.205900000000000
C      49.533849999999987     45.811899999999994     47.268200000000007
H      48.185749999999999     50.629300000000001     48.463400000000007
H      46.811149999999998     50.888700000000000     49.200299999999999
H      46.910550000000001     49.619000000000000     50.913899999999998
H      48.423249999999996     50.136399999999995     50.553700000000006
H      46.529250000000005     49.702799999999996     46.800700000000006
H      45.758250000000004     48.999799999999993     48.050200000000004
H      47.451049999999995     47.251099999999994     50.590500000000006
H      49.247349999999997     47.829399999999993     50.962599999999995
H      47.282049999999998     47.923299999999998     45.800400000000010
H      49.769449999999992     45.694899999999990     49.595399999999998
H      49.418449999999993     46.496699999999990     45.037400000000005
H      50.241749999999996     45.111300000000000     47.014800000000008
