22

C      47.818349999999995     45.315329999999996     48.554149999999993
C      48.297249999999991     45.605850000000004     47.121149999999993
C      46.997149999999991     46.560550000000006     48.996050000000004
C      49.166249999999991     46.794140000000013     46.770649999999996
C      47.479349999999997     47.964700000000008     48.237450000000003
C      48.530649999999994     48.091809999999995     47.256650000000000
C      46.519350000000003     49.026759999999996     48.543849999999999
C      49.137349999999998     49.356759999999994     46.842149999999997
C      47.128549999999990     50.262360000000001     48.206049999999998
C      48.341249999999988     50.464960000000005     47.369250000000001
H      48.419150000000002     44.878120000000003     49.363350000000004
H      47.086749999999995     44.525340000000000     48.236349999999995
H      47.335549999999998     45.922169999999994     46.554150000000000
H      48.451349999999991     44.682400000000001     46.478349999999999
H      46.835849999999994     46.546180000000007     50.119549999999997
H      45.989949999999993     46.330470000000005     48.626349999999995
H      49.767249999999990     46.790680000000009     45.880450000000003
H      50.198549999999997     46.686340000000001     47.204850000000000
H      45.801450000000003     49.074359999999999     49.013849999999998
H      50.089249999999993     49.537460000000010     46.000949999999996
H      46.843350000000001     51.271960000000007     47.950550000000000
H      48.722849999999994     51.474660000000000     47.209949999999999
