16

C      46.325299999999991     47.936949999999996     46.517019999999988
C      48.573099999999997     50.441549999999992     47.732430000000008
C      47.682099999999998     47.933750000000003     46.949019999999990
C      48.404799999999994     48.969849999999994     47.794370000000001
C      48.233500000000006     46.499549999999999     47.186909999999997
C      49.274799999999999     48.528750000000002     48.827770000000001
C      49.005799999999994     46.055549999999997     48.328000000000003
C      49.678599999999989     47.146050000000002     49.000129999999999
H      46.112499999999997     48.998850000000004     46.114679999999993
H      45.598500000000001     47.222149999999999     46.512509999999992
H      47.931300000000000     51.142150000000001     47.316749999999999
H      49.406900000000000     50.929749999999999     48.308009999999996
H      47.941800000000001     45.829849999999993     46.488619999999997
H      49.842600000000004     49.335049999999995     49.233580000000003
H      49.162399999999991     44.857849999999999     48.420099999999991
H      50.401499999999999     46.630150000000000     49.885320000000007
