41

C      49.153049999999986     49.196499999999993     47.297999999999988
C      50.244349999999997     47.453300000000006     48.416599999999995
C      47.216149999999999     53.995200000000011     44.702199999999998
C      46.253649999999993     53.268799999999999     45.500899999999994
C      49.761550000000000     50.505099999999999     47.042899999999996
C      48.240650000000002     50.407300000000006     47.089799999999997
C      48.592849999999999     53.408000000000001     44.655699999999996
C      46.373649999999998     51.995500000000007     46.326899999999995
C      48.622549999999990     52.284100000000009     45.388199999999998
C      47.656849999999991     51.473799999999997     46.328599999999994
C      49.009149999999991     48.006100000000004     48.028799999999997
C      48.540949999999995     45.209500000000006     48.676499999999997
C      48.822350000000000     44.422100000000007     49.768400000000000
C      49.321749999999994     46.497400000000006     48.408999999999999
C      48.085349999999991     44.042400000000001     48.621199999999995
C      46.208449999999999     42.498400000000004     49.029899999999998
C      44.680049999999994     43.085400000000007     49.385299999999994
C      49.563049999999990     44.179400000000001     51.220799999999997
C      44.783549999999991     53.728700000000003     45.151699999999998
C      51.733750000000001     47.734300000000005     48.587699999999991
C      49.973749999999995     51.562300000000008     45.886099999999999
H      46.819049999999990     54.575299999999999     43.843799999999995
H      49.560649999999995     53.890400000000000     44.212799999999994
H      45.586050000000000     51.241000000000000     46.939299999999996
H      46.411749999999998     41.424700000000001     49.273399999999988
H      46.851549999999989     42.505200000000002     49.869299999999988
H      44.581249999999997     44.194200000000002     49.107499999999995
H      43.875050000000002     42.746800000000007     48.781699999999994
H      44.269849999999991     42.495500000000007     50.356099999999991
H      49.689849999999993     45.241000000000007     51.200800000000008
H      49.241949999999989     43.886900000000004     52.156200000000005
H      50.271349999999998     43.448200000000007     50.950499999999998
H      44.195749999999990     54.121400000000008     46.058000000000000
H      45.085049999999995     54.564100000000010     44.245199999999997
H      43.914850000000001     53.059600000000003     44.637699999999995
H      52.124949999999998     47.501200000000004     47.545999999999999
H      51.841650000000001     47.438300000000005     49.590300000000006
H      51.905749999999998     48.871000000000009     48.542999999999999
H      50.134549999999990     50.950299999999999     45.023199999999996
H      50.857149999999990     52.356099999999998     45.915999999999997
O      46.923649999999995     43.303100000000008     48.026699999999998
