22

C      46.927399999999992     49.648499999999991     47.701649999999994
C      45.721399999999996     48.865600000000001     48.308250000000001
C      48.077099999999994     48.792099999999998     46.702849999999998
C      46.022699999999993     47.384799999999998     48.609449999999995
C      48.524600000000000     47.543999999999997     47.328949999999999
C      47.616700000000002     47.090699999999998     48.321449999999999
C      49.810499999999998     47.236699999999999     47.248550000000002
C      48.015499999999996     46.200099999999992     49.381749999999997
C      50.349399999999996     46.398600000000002     48.253050000000002
C      49.448399999999999     45.963999999999999     49.335149999999999
H      47.427900000000001     50.204899999999995     48.533249999999995
H      46.801499999999997     50.384399999999999     46.923949999999998
H      44.766900000000000     49.091600000000000     47.872649999999993
H      45.689799999999998     49.276499999999999     49.294049999999999
H      47.648800000000001     48.651799999999994     45.669849999999997
H      48.955199999999998     49.264600000000002     46.214649999999999
H      45.484699999999997     46.821500000000000     47.960949999999997
H      45.886500000000005     47.246499999999997     49.764849999999996
H      50.753499999999995     47.467399999999998     46.391950000000001
H      47.187800000000003     45.796199999999999     50.089050000000000
H      51.233100000000000     46.141999999999996     48.403750000000002
H      49.870399999999997     45.615600000000001     50.330150000000003
