21

C      49.481399999999994     46.558899999999994     49.916650000000004
C      48.240499999999997     45.982700000000001     48.944150000000008
C      49.184799999999996     48.113199999999999     49.558250000000001
C      47.735900000000001     46.803500000000007     47.742850000000004
C      48.577599999999997     48.026700000000012     48.044450000000012
C      47.097600000000000     48.029699999999998     48.003850000000000
C      49.085599999999999     48.776300000000006     46.820250000000001
C      46.519500000000001     49.198000000000000     47.212050000000005
C      48.507700000000000     49.644200000000005     45.875850000000000
C      47.165099999999995     49.968899999999998     46.227150000000009
H      50.375599999999999     46.152900000000002     49.675350000000009
H      49.124699999999997     46.265900000000002     51.066149999999993
H      47.489999999999995     45.576100000000004     49.729950000000002
H      48.501799999999996     45.143800000000006     48.419650000000004
H      48.479500000000002     48.415900000000001     50.354749999999996
H      50.067499999999995     48.885200000000005     49.738050000000001
H      47.243699999999997     46.342400000000005     46.824750000000009
H      50.127199999999995     49.147400000000005     46.582650000000001
H      45.624400000000001     49.730400000000003     47.662750000000003
H      49.072899999999997     50.125000000000007     44.933850000000007
H      46.637599999999999     50.856199999999994     45.775350000000003
