28

C      48.452649999999998     48.679599999999994     46.040999999999997
C      49.316450000000003     47.792300000000004     46.759500000000010
C      44.576950000000004     47.116199999999999     48.915200000000006
C      45.198750000000004     46.601300000000002     50.179099999999998
C      47.010449999999999     48.434999999999995     46.475500000000004
C      48.874650000000003     47.330800000000004     48.113100000000010
C      45.067149999999998     47.671900000000001     47.632899999999999
C      46.622550000000004     46.784299999999995     49.993100000000005
C      46.440750000000001     47.842800000000004     47.633400000000002
C      47.371050000000004     47.086400000000005     48.741900000000008
C      48.729950000000002     49.649799999999992     45.024999999999999
C      50.177049999999994     49.408200000000001     44.747800000000005
C      51.109250000000003     48.374299999999998     45.185500000000012
C      50.765050000000002     47.541000000000004     46.284200000000006
C      47.273049999999998     46.768099999999997     51.233400000000010
C      51.878150000000005     46.674699999999994     46.832300000000011
H      51.517650000000003     45.891500000000001     47.623600000000003
H      43.448650000000001     47.059800000000003     48.798200000000001
H      44.393950000000004     46.304799999999993     50.929800000000007
H      45.999850000000002     48.469000000000001     46.015900000000009
H      44.384450000000001     48.111399999999996     46.755700000000012
H      48.196550000000002     50.108499999999999     44.276900000000005
H      50.770449999999997     49.995699999999992     43.778500000000001
H      52.086050000000000     48.268799999999992     44.905000000000008
H      52.432249999999996     47.450200000000002     47.245800000000010
H      52.551349999999999     46.261599999999994     46.069900000000011
O      46.873449999999998     47.103900000000003     52.221499999999999
O      48.860749999999996     46.285400000000003     48.736200000000004
