22

C      46.313399999999994     48.747149999999991     48.988099999999989
C      47.656099999999995     49.576549999999997     49.765799999999992
C      47.745599999999996     46.472650000000002     49.114600000000003
C      49.062500000000000     48.672150000000002     49.836599999999997
C      47.213600000000000     47.677350000000004     48.212699999999991
C      48.596299999999999     47.843149999999994     48.572299999999991
C      46.840100000000007     47.317750000000004     46.907599999999995
C      49.584199999999996     47.963349999999991     47.505199999999995
C      47.824600000000004     47.342150000000004     45.831299999999999
C      49.241900000000001     47.817149999999998     46.211099999999995
H      45.963399999999993     48.902749999999983     47.988300000000002
H      45.454700000000003     48.272649999999999     49.536799999999992
H      47.487499999999997     50.602750000000000     49.403100000000002
H      47.410100000000000     49.321150000000003     50.930900000000001
H      47.469800000000006     46.378550000000004     50.084200000000003
H      47.944000000000003     45.397250000000000     48.613999999999997
H      49.863799999999998     49.416749999999993     49.748600000000003
H      49.257499999999993     48.170349999999999     50.698900000000002
H      46.148099999999999     46.489350000000002     46.705300000000001
H      50.545299999999997     48.024649999999994     47.745699999999992
H      48.116799999999998     46.654749999999993     45.069099999999999
H      49.893299999999996     47.697149999999993     45.390299999999996
