22

C      47.722199999999994     49.759699999999995     49.147300000000001
C      48.484999999999999     50.368000000000002     47.967300000000009
C      49.136099999999999     47.208100000000002     47.663499999999999
C      48.136400000000009     49.625599999999999     46.713099999999997
C      47.225500000000011     48.200600000000001     48.793400000000005
C      47.774600000000007     48.108000000000004     47.472800000000007
C      47.812200000000004     46.974000000000004     46.610200000000006
C      46.393700000000010     47.171600000000005     49.214199999999991
C      47.176700000000011     45.637900000000002     47.257500000000007
C      46.488900000000001     45.944300000000005     48.444699999999997
H      48.221900000000005     49.740700000000004     50.222299999999990
H      46.868700000000004     50.485199999999999     49.128000000000000
H      48.045000000000002     51.418500000000002     47.859099999999998
H      49.384200000000007     50.962400000000002     48.335499999999996
H      49.134100000000004     46.439700000000002     48.585900000000009
H      50.092100000000002     47.383800000000001     47.095200000000006
H      49.106099999999998     49.586100000000002     46.021000000000001
H      47.481900000000010     50.272100000000002     45.866900000000001
H      48.608600000000010     47.041500000000006     45.777700000000010
H      45.907899999999998     47.190200000000004     50.213800000000006
H      47.329500000000010     44.581499999999998     46.847999999999999
H      45.965600000000009     44.970199999999998     48.965400000000002
