46

C      45.660150000000002     48.695499999999996     51.577819999999996
C      46.871249999999996     47.868300000000005     51.975120000000004
C      46.461549999999995     47.240200000000002     44.364340000000006
C      50.499749999999999     47.249500000000005     47.382920000000006
C      45.592950000000009     49.411999999999999     50.256320000000002
C      47.825350000000007     46.973400000000005     44.629300000000001
C      49.837350000000008     47.156500000000001     46.102220000000003
C      45.518549999999998     47.718700000000005     45.559320000000007
C      48.060150000000000     47.946800000000003     50.972620000000006
C      49.501849999999997     47.378700000000002     48.480220000000003
C      45.607350000000004     48.757300000000008     47.847020000000001
C      48.413450000000005     46.881000000000007     45.991920000000007
C      46.256850000000007     48.727899999999998     49.164020000000008
C      46.078350000000007     47.810400000000008     46.787620000000004
C      47.348649999999999     47.908700000000003     49.416620000000002
C      48.134750000000004     47.262200000000000     48.307520000000004
C      47.482350000000004     47.174300000000002     47.164120000000004
C      44.992049999999999     49.152100000000004     52.765720000000002
C      45.272950000000002     48.458100000000002     53.864820000000009
C      46.101549999999996     47.135899999999999     54.035720000000012
C      47.311850000000000     47.091900000000003     53.093420000000009
C      45.907050000000005     46.638400000000004     43.168840000000003
C      46.759650000000001     46.343100000000000     42.066770000000005
C      48.174950000000003     46.811900000000001     41.980240000000002
C      48.714050000000007     46.939200000000007     43.378950000000003
C      50.158350000000006     47.064900000000002     43.552090000000007
C      50.675450000000005     47.192300000000003     44.951820000000005
C      51.047550000000008     46.900800000000004     42.506410000000002
H      51.607650000000000     47.238000000000007     47.498620000000003
H      44.967649999999999     50.210400000000000     50.123320000000007
H      44.518650000000001     47.870600000000003     45.231620000000007
H      48.634250000000002     48.923500000000004     51.107620000000004
H      49.646850000000008     47.871500000000005     49.428320000000006
H      44.678850000000004     49.599200000000003     47.976720000000000
H      44.121649999999995     49.874900000000004     52.678719999999998
H      44.584250000000004     48.678000000000004     54.641420000000004
H      46.226250000000000     46.373899999999999     54.920919999999995
H      48.296349999999997     46.891200000000005     53.606420000000000
H      44.905149999999999     46.128500000000003     43.340930000000000
H      46.665950000000002     45.789600000000000     41.137480000000004
H      48.747050000000009     46.642800000000001     41.079080000000005
H      51.606050000000003     45.958900000000007     42.072230000000005
H      51.804449999999996     47.203000000000003     44.891570000000002
H      50.753350000000005     47.480600000000003     41.457010000000004
H      51.878350000000005     47.643200000000000     42.798660000000005
H      48.673350000000006     46.932300000000005     50.849920000000004
