9

C      48.140249999999995     47.564399999999992     47.479099999999988
C      46.706850000000003     47.221600000000002     47.839299999999987
C      48.819649999999996     48.383600000000008     48.585999999999991
H      49.010549999999995     47.848599999999998     49.519500000000001
H      48.554850000000002     47.379700000000000     46.480499999999999
H      46.056650000000005     46.662900000000000     47.301299999999991
H      46.583650000000006     47.328200000000002     49.027699999999989
H      49.943349999999995     48.557299999999991     48.244999999999997
H      48.306950000000001     49.337100000000000     48.536999999999999
