6

C      48.346399999999988     47.647799999999989     48.362549999999992
C      47.720299999999995     48.530799999999999     47.581049999999998
H      48.259299999999996     47.520600000000002     49.527050000000003
H      48.790800000000004     46.678399999999996     48.073149999999998
H      47.783900000000003     48.453599999999994     46.472949999999997
H      47.209199999999996     49.321600000000004     47.896149999999999
