22

C      49.288349999999994     46.182599999999987     48.600077354999989
C      48.470449999999992     46.637999999999998     49.810167355000004
C      48.902949999999997     46.718399999999988     47.066767354999996
C      47.031249999999993     46.874199999999995     49.456787354999996
C      48.022649999999992     48.050199999999990     47.028907355000001
C      47.118949999999991     47.827399999999997     48.160947354999998
C      47.932249999999989     49.190999999999995     46.099206355000000
C      46.381749999999990     49.013999999999996     48.521347354999996
C      46.972649999999994     50.158599999999993     46.159471355000001
C      46.230349999999994     50.079899999999995     47.514707354999999
H      49.606450000000002     45.007999999999996     48.777857355000002
H      50.362749999999998     46.670999999999992     48.821507355000001
H      48.674649999999993     46.009499999999996     50.601897354999998
H      48.793450000000000     47.565799999999996     50.295627354999993
H      49.865049999999989     46.755899999999997     46.514147354999999
H      48.118049999999990     46.006599999999999     46.664137355000001
H      46.678449999999991     45.822399999999995     49.157487355000001
H      46.190649999999998     47.190799999999996     50.045667354999992
H      48.603549999999991     49.658199999999994     45.398102645000002
H      46.194550000000000     49.378399999999992     49.492897354999997
H      46.931750000000001     50.992000000000004     45.488216555000001
H      45.637250000000002     50.666499999999992     48.073847354999998
