84

C      50.720749999999995     53.869699999999995     45.985049999999994
C      52.101849999999999     53.421100000000003     48.174750000000003
C      50.339849999999998     48.076599999999999     50.565849999999998
C      49.601349999999996     50.304600000000001     47.737849999999995
C      52.053749999999994     53.179200000000002     49.656149999999997
C      50.269849999999991     49.602499999999999     50.399450000000002
C      51.511849999999995     47.160000000000004     51.038950000000000
C      50.845549999999989     50.838799999999999     50.241450000000000
C      50.094650000000001     50.245899999999999     49.063749999999999
C      50.357649999999992     52.627800000000001     46.361850000000004
C      49.472349999999992     51.705600000000004     47.154150000000001
C      48.192650000000000     51.051500000000004     46.850350000000006
C      52.306849999999997     54.584400000000002     48.994749999999996
C      51.676149999999993     53.048099999999998     46.819950000000006
C      48.933250000000001     49.306400000000004     46.836449999999999
C      49.287250000000000     48.657800000000002     45.452349999999996
C      51.522750000000002     52.131700000000002     50.445149999999998
C      52.150349999999989     46.237400000000001     49.892250000000004
C      52.300449999999998     48.000300000000003     52.026250000000005
C      50.318349999999995     47.295800000000000     51.689350000000005
C      51.625549999999990     48.038300000000000     53.562250000000006
C      50.014550000000000     47.959699999999998     53.181250000000006
C      47.642849999999996     49.010100000000001     42.438950000000006
C      50.151349999999994     54.883900000000004     45.221850000000003
C      49.137950000000004     55.605900000000013     44.346450000000004
C      49.843649999999997     54.560300000000005     43.942049999999995
C      47.382949999999994     45.173400000000001     45.107849999999999
C      46.074749999999995     45.619799999999998     45.530249999999995
C      46.005049999999997     40.853900000000003     47.160550000000001
C      47.656849999999991     43.689000000000000     45.159649999999999
C      45.244149999999991     44.702400000000004     46.248950000000008
C      47.035150000000002     41.193700000000000     46.210949999999997
C      45.308449999999993     42.089700000000001     47.342950000000002
C      46.866749999999996     42.599699999999999     45.854050000000001
C      45.721350000000001     43.277900000000002     46.461550000000003
C      48.234549999999999     46.001300000000001     44.153250000000000
C      48.221649999999997     47.609600000000000     44.504050000000007
C      46.829549999999998     47.935299999999998     44.908349999999999
C      45.716549999999998     47.073300000000003     45.250249999999994
C      48.222650000000002     45.389800000000001     42.856049999999996
C      48.695449999999994     44.190300000000001     42.272649999999999
C      48.210149999999999     46.914900000000003     43.035350000000008
C      47.224350000000001     42.429900000000004     44.503349999999998
C      44.888449999999992     49.742800000000003     44.947050000000004
C      43.939149999999998     48.863500000000002     45.511350000000007
C      44.498649999999998     47.586100000000002     46.110050000000001
C      44.092349999999996     45.214600000000004     46.988150000000005
C      43.718949999999992     46.588999999999999     46.747650000000007
C      45.505250000000004     39.804200000000002     48.217449999999999
H      49.532049999999998     49.441700000000004     44.753249999999994
H      50.257449999999992     48.218899999999998     45.624650000000003
H      52.041449999999998     52.432700000000004     51.452550000000002
H      52.955950000000001     45.694900000000004     50.115350000000007
H      52.495849999999990     47.234900000000003     49.687650000000005
H      51.285449999999997     45.771400000000000     49.555250000000001
H      52.424149999999997     49.113100000000003     51.599550000000008
H      53.269750000000002     47.670300000000005     52.112949999999998
H      47.247649999999993     50.667999999999999     47.233550000000008
H      51.491149999999990     49.074300000000001     54.034149999999997
H      51.894849999999991     47.374600000000001     54.314350000000005
H      49.776049999999998     48.990099999999998     52.846450000000004
H      49.071550000000002     47.547000000000004     53.556449999999998
H      48.366349999999997     56.684700000000014     42.431049999999999
H      47.480350000000001     56.924099999999996     43.450050000000005
H      46.857050000000001     50.215899999999998     44.608649999999997
H      49.663449999999997     54.110700000000001     41.685649999999995
H      47.897250000000000     40.486300000000000     45.923649999999995
H      44.308349999999990     42.315899999999999     48.175550000000001
H      47.269449999999992     42.376400000000004     43.479050000000001
H      44.422049999999999     50.686399999999999     45.234150000000000
H      42.960949999999997     49.236499999999999     45.431849999999997
H      43.508250000000004     44.580199999999998     47.791550000000001
H      42.708749999999995     46.939000000000000     46.955650000000006
H      45.118549999999999     39.075900000000004     47.541449999999998
H      44.682949999999991     40.320799999999998     48.634650000000008
H      46.276650000000004     39.350000000000001     48.911950000000004
H      48.202550000000002     48.540300000000002     47.330449999999999
N      48.428849999999997     56.643799999999992     43.598950000000002
N      46.227949999999993     49.323999999999998     45.056849999999997
O      53.291250000000005     55.288899999999991     48.945650000000001
O      47.197549999999993     47.856900000000003     42.376549999999995
O      48.123849999999990     50.124299999999998     42.560850000000002
O      49.020650000000003     43.167600000000000     41.800750000000008
O      49.951149999999998     53.617000000000004     42.650750000000002
