23

C      46.765889999999992     48.279299999999992     49.332300000000004
C      45.966989999999996     48.045100000000005     47.990600000000001
C      47.750990000000002     49.598900000000000     48.874600000000001
C      46.884889999999999     47.535100000000000     46.728800000000007
C      48.811589999999995     48.635000000000005     48.151200000000003
C      48.388889999999989     47.778099999999995     46.927900000000008
C      49.882790000000000     47.838700000000003     48.897199999999998
C      49.062289999999990     46.501199999999997     47.234900000000010
C      48.905490000000000     48.989699999999999     46.350500000000011
C      50.275939999999991     46.753000000000000     48.103800000000007
H      49.896789999999996     49.025700000000001     46.027799999999999
H      47.354089999999999     47.316199999999995     49.621800000000007
H      46.129689999999997     48.782500000000013     50.208299999999994
H      45.092389999999995     48.989500000000007     47.712400000000002
H      44.964089999999999     47.282600000000002     48.082100000000011
H      48.299589999999995     50.174000000000007     49.593600000000009
H      47.110789999999994     50.341800000000006     48.287900000000008
H      46.529689999999988     48.000600000000006     45.791700000000006
H      46.698489999999993     46.464299999999994     46.294000000000011
H      50.369171000000009     48.339100000000002     49.722200000000001
H      49.145889999999994     45.658199999999994     46.412500000000009
H      48.089789999999994     49.769199999999998     46.162900000000008
H      51.035910000000001     46.034899999999993     48.609500000000011
