19

C      47.774099999999997     47.797699999999992     45.484799999999993
C      49.594600000000000     48.204200000000000     47.070299999999996
C      46.762600000000006     47.590500000000006     46.317199999999993
C      49.155000000000001     48.085400000000007     45.704599999999992
C      47.155600000000007     47.956200000000010     47.732199999999999
C      48.549599999999998     47.933100000000010     47.991499999999995
C      49.057400000000001     47.977900000000005     49.458999999999996
C      46.367100000000008     47.785700000000006     48.934099999999994
C      48.232799999999997     47.946700000000007     50.566699999999990
C      46.733900000000006     47.844400000000007     50.307200000000002
H      47.679900000000004     47.542400000000001     44.415900000000001
H      49.487899999999996     48.864800000000002     44.791499999999999
H      50.688699999999997     48.308300000000003     47.398000000000003
H      45.692200000000000     47.235399999999998     45.847099999999990
H      49.720900000000000     47.135199999999998     45.266699999999993
H      50.220600000000005     47.972400000000007     49.620600000000003
H      45.311300000000003     47.602100000000007     49.013500000000001
H      48.636800000000008     48.115600000000001     51.584099999999999
H      45.885700000000000     47.781700000000001     51.203200000000002
