20

C      46.077249999999992     46.731349999999992     49.939099999999996
C      46.308050000000001     48.752249999999989     48.259900000000002
C      45.577949999999994     46.308849999999993     48.303399999999996
C      46.737449999999988     47.275549999999996     48.671700000000001
C      49.151149999999994     48.462049999999991     47.938400000000001
C      47.768549999999998     48.350349999999992     48.662499999999994
C      49.978649999999995     47.466349999999991     47.319400000000002
C      49.778550000000003     49.683049999999994     47.439399999999992
C      50.792750000000005     48.130249999999990     46.276699999999991
C      50.382149999999989     49.516649999999998     46.162399999999991
H      45.985749999999996     45.413550000000001     47.720100000000002
H      45.849349999999994     46.062749999999994     50.838999999999999
H      45.879449999999999     48.883049999999997     47.319199999999995
H      45.728349999999999     49.081849999999989     49.204999999999998
H      45.595549999999996     47.790349999999989     50.057299999999984
H      44.565249999999999     46.733049999999992     48.142299999999992
H      50.116149999999998     46.409250000000000     47.490799999999993
H      49.333949999999994     50.586449999999999     47.561799999999991
H      51.434750000000001     47.497049999999987     45.564899999999994
H      50.411350000000006     50.163249999999991     45.161000000000001
