6

C      47.577599999999997     48.258599999999994     47.630399999999995
C      48.514400000000002     47.776399999999995     48.516900000000000
H      47.789400000000001     48.484700000000004     46.501899999999999
H      46.574200000000005     48.233400000000003     47.832400000000000
H      49.425799999999995     47.570599999999999     48.252900000000004
H      48.210300000000004     47.515299999999996     49.498100000000001
