21

C      46.618049999999997     45.782599999999995     47.897599999999990
C      45.709350000000001     47.048000000000002     47.306299999999993
C      47.873850000000004     46.548800000000000     48.574500000000000
C      46.430250000000001     48.450800000000001     47.235500000000002
C      48.903450000000007     47.186199999999999     47.679199999999994
C      47.801450000000003     47.920400000000001     48.219899999999996
C      50.143050000000002     48.034599999999998     47.468899999999998
C      47.870350000000002     49.118399999999994     48.900400000000005
C      50.122349999999997     49.431200000000004     47.567999999999998
C      49.144149999999996     49.855300000000000     48.580900000000000
H      47.016350000000003     45.201300000000003     47.206299999999999
H      44.839250000000007     47.130600000000001     47.851299999999995
H      45.413650000000004     46.622000000000000     46.207099999999997
H      47.987750000000005     46.763800000000003     49.680499999999995
H      46.289950000000005     45.353999999999999     48.715699999999998
H      45.705349999999996     49.357299999999995     47.527799999999999
H      46.884349999999998     48.503799999999998     46.371299999999998
H      51.160749999999993     47.596400000000003     47.167900000000003
H      47.348650000000006     48.997000000000000     49.792900000000003
H      51.028049999999993     49.941900000000004     47.353899999999996
H      49.275049999999993     50.798699999999997     49.118099999999998
