17

C      47.921649999999993     46.724849999999996     50.697149999999993
C      49.206750000000000     47.552250000000001     48.126750000000001
C      47.905450000000002     48.151250000000005     48.272449999999999
C      48.391850000000005     47.051850000000002     49.209449999999997
C      47.612350000000006     48.232749999999996     45.496350000000000
C      47.122550000000004     49.324449999999999     47.798449999999995
C      46.865450000000010     47.156350000000003     45.908949999999997
C      47.126350000000002     49.431550000000001     46.372850000000000
H      47.496650000000002     47.762249999999995     50.991750000000003
H      45.981150000000000     47.330449999999999     46.717750000000002
H      47.434449999999998     45.682749999999999     50.819849999999995
H      48.760249999999999     46.596550000000008     51.266050000000000
H      50.018850000000000     47.628150000000005     47.618850000000002
H      48.579549999999998     48.371849999999995     44.733950000000000
H      46.721950000000007     50.252549999999999     48.352750000000000
H      47.148550000000000     46.086449999999999     45.907249999999998
H      46.531649999999999     50.317250000000001     45.886350000000000
