22

C      49.008549999999993     49.286649999999995     46.358399999999989
C      50.485950000000003     48.715949999999999     46.651499999999999
C      47.958150000000003     48.573050000000002     47.410699999999991
C      50.061549999999997     47.299849999999999     47.446699999999993
C      48.644850000000005     46.676350000000006     49.272000000000006
C      47.316550000000007     46.377749999999999     49.544400000000010
C      48.761449999999996     47.428450000000005     47.979599999999991
C      45.965050000000005     46.273150000000001     48.749600000000001
C      47.822850000000003     46.981550000000006     47.052499999999995
C      46.322249999999997     46.468150000000001     47.440800000000010
H      48.897050000000007     50.256250000000001     46.461699999999993
H      48.623249999999999     49.001449999999998     45.336399999999998
H      50.970550000000003     48.548250000000003     45.644099999999995
H      51.073949999999996     49.484749999999998     47.329899999999995
H      49.483950000000007     46.455249999999999     49.829599999999999
H      46.926950000000005     49.060250000000003     47.748000000000005
H      47.306950000000001     46.056550000000001     50.663600000000002
H      50.730649999999997     47.214050000000000     48.318799999999996
H      50.041049999999998     46.686050000000002     46.495500000000007
H      44.926050000000004     45.743749999999999     49.049300000000002
H      48.206550000000007     46.699950000000001     45.961299999999994
H      45.542550000000006     46.511150000000001     46.598500000000001
