22

C      45.756594999999983     48.997349999999997     49.834049999999991
C      46.974194999999995     48.109450000000002     49.827149999999996
C      45.337994999999992     48.909050000000001     48.259349999999991
C      50.802115000000001     46.877850000000002     46.727249999999991
C      46.705195000000003     48.201650000000001     47.648949999999992
C      47.786194999999992     48.157250000000005     48.613049999999994
C      46.956795000000000     47.969050000000003     46.252049999999990
C      49.192933999999994     47.686050000000002     48.433749999999996
C      48.432895000000002     47.575850000000003     46.073749999999997
C      49.402846000000011     47.306950000000001     47.103949999999990
H      44.742294999999999     48.537450000000000     50.533349999999992
H      45.840395000000001     50.007050000000000     50.177050000000001
H      46.447594999999993     47.147550000000003     50.004349999999995
H      47.565995000000001     47.940449999999998     50.932650000000002
H      45.086995000000002     50.002150000000000     47.851749999999988
H      44.620795000000001     48.040750000000003     48.451649999999994
H      51.379204999999999     47.815249999999999     47.060949999999998
H      51.078715000000003     45.992950000000000     47.365850000000002
H      46.428595000000001     48.316050000000004     45.407750000000000
H      49.926995000000005     47.340850000000003     49.209249999999990
H      48.798640000000006     47.441650000000003     45.067349999999998
H      50.950635000000005     46.526750000000000     45.486249999999991
