5

C      48.091349999999991     48.099249999999991     48.096349999999994
H      48.692450000000001     47.027349999999998     47.755750000000006
H      47.415550000000003     48.483449999999991     47.295950000000005
H      47.307549999999999     47.906649999999999     48.704049999999995
H      48.572849999999995     48.972650000000002     48.069850000000002
