22

C      47.772399999999990     45.530039999999993     47.287349999999996
C      46.307299999999998     46.026799999999994     47.770750000000007
C      49.086700000000008     46.278980000000004     47.899150000000006
C      46.384200000000007     47.150610000000000     48.926450000000003
C      48.724000000000004     47.707450000000009     48.388950000000008
C      47.467500000000001     48.276730000000001     48.763750000000002
C      49.781700000000001     48.698940000000000     48.233950000000007
C      47.208300000000008     49.682990000000004     48.792649999999995
C      49.763000000000005     50.056579999999997     48.413650000000004
C      48.378400000000013     50.496899999999997     48.895750000000007
H      47.888700000000000     45.469390000000004     46.210750000000004
H      47.702500000000001     44.470540000000000     47.090650000000004
H      45.701099999999997     45.967749999999995     46.996450000000003
H      45.623699999999999     45.388210000000001     48.389650000000003
H      49.306700000000006     45.841590000000004     49.008250000000004
H      49.610100000000017     45.370010000000001     47.304450000000003
H      46.661200000000008     46.735050000000001     49.789249999999996
H      45.281300000000002     47.470070000000007     48.732650000000007
H      50.718699999999998     48.417509999999993     47.659949999999995
H      46.266000000000005     49.967020000000005     49.085549999999998
H      50.490300000000005     50.791250000000005     48.154050000000012
H      48.552900000000008     51.529460000000000     49.129750000000001
