22

C      48.720649999999999     47.364499999999992     50.583399999999997
C      47.432450000000003     46.641900000000007     49.865200000000009
C      49.499750000000006     47.960500000000010     49.291300000000000
C      46.711550000000003     46.739300000000000     48.516900000000000
C      48.425250000000005     48.303300000000007     48.152300000000004
C      47.372850000000000     47.685500000000005     47.564700000000009
C      49.154849999999996     49.383100000000013     47.401600000000009
C      46.656150000000004     47.986000000000004     46.364400000000010
C      48.594850000000008     49.673300000000012     46.137000000000008
C      47.376950000000008     49.042100000000005     45.679200000000002
H      49.410550000000001     46.607399999999998     51.178400000000003
H      48.661950000000004     48.085400000000007     51.367500000000000
H      48.370649999999998     45.675200000000004     49.832900000000002
H      46.768249999999995     46.562200000000004     50.753999999999998
H      50.091149999999999     48.910400000000010     49.467300000000002
H      50.416449999999998     47.440100000000015     48.812000000000005
H      45.638750000000002     47.043199999999999     48.485800000000005
H      46.933549999999997     45.641700000000000     48.179300000000005
H      50.081450000000004     49.804400000000015     47.852100000000000
H      45.583550000000002     47.682000000000002     46.078000000000010
H      48.988950000000003     50.358300000000000     45.496400000000001
H      46.986850000000004     49.217100000000002     44.632500000000000
