44

C      49.206549999999986     48.252454999999991     47.031399999999998
C      48.768249999999995     47.962445000000002     48.527400000000000
C      44.175950000000000     48.060305000000000     46.551000000000002
C      48.079349999999991     48.387725000000003     46.047100000000000
C      45.352249999999998     48.451205000000002     45.785899999999998
C      44.828949999999992     47.685034999999999     47.865799999999993
C      46.575649999999996     48.119745000000002     46.417999999999992
C      46.313850000000002     47.904235000000000     47.757199999999997
C      50.529849999999996     48.670955000000006     46.507800000000003
C      51.522049999999993     48.759734999999992     47.481700000000004
C      51.217050000000000     48.283034999999998     48.902400000000000
C      49.787849999999992     48.029764999999998     49.426199999999994
C      50.786850000000001     49.353065000000001     45.107299999999995
C      51.995350000000002     50.158164999999997     44.819299999999998
C      52.949849999999998     50.108665000000002     45.941000000000003
C      52.828249999999997     49.393564999999995     47.119500000000002
C      49.722949999999997     49.296025000000000     44.131799999999998
C      48.565550000000002     49.138545000000001     44.937299999999993
C      52.339749999999995     48.245294999999999     49.761399999999995
C      51.969349999999991     48.150194999999997     51.054500000000004
C      50.625649999999993     48.060184999999997     51.686800000000005
C      49.539549999999991     47.971094999999998     50.870900000000006
C      48.186549999999997     47.576574999999998     51.586200000000005
C      52.983949999999993     47.922364999999999     52.030900000000003
C      44.313249999999996     46.970185000000001     49.166799999999995
C      42.902349999999998     46.084544999999999     48.824600000000004
H      42.957349999999991     48.031475000000000     46.457700000000003
H      45.274649999999994     48.718654999999998     44.667299999999997
H      44.748649999999998     46.011404999999996     49.093500000000006
H      52.180750000000003     50.859565000000003     44.074100000000001
H      53.831050000000005     50.753264999999999     45.990099999999998
H      53.706949999999992     49.499164999999991     47.774100000000004
H      49.815150000000003     49.872164999999995     43.007400000000004
H      47.631550000000004     49.312885000000009     44.431799999999996
H      53.287750000000003     47.807164999999998     49.466200000000001
H      50.654849999999996     48.041084999999995     52.761799999999994
H      46.974750000000000     47.703825000000002     49.739900000000006
H      44.601950000000002     47.581465000000001     49.878399999999999
H      42.658850000000001     45.140434999999997     49.529499999999999
H      42.832149999999999     45.597504999999998     47.873800000000003
H      42.168949999999995     46.553874999999998     49.193500000000000
N      47.376850000000005     47.938924999999998     48.851500000000001
O      47.330950000000001     47.099415000000000     52.123199999999997
O      53.523650000000004     47.792175000000000     52.992599999999996
