79

C      47.397149999999996     44.830884999999981     44.788449999999997
C      49.197650000000003     46.708884999999988     43.678250000000006
C      44.797350000000002     44.316285000000001     45.656649999999999
C      48.926150000000000     45.019484999999996     46.860650000000007
C      47.133549999999993     44.730984999999997     43.344149999999999
C      44.818649999999998     45.664684999999999     45.357450000000000
C      50.817850000000000     48.791984999999990     43.007249999999999
C      46.192149999999991     45.103584999999988     45.405149999999992
C      48.107149999999997     45.705884999999988     43.883750000000006
C      49.948649999999994     48.204284999999992     45.570350000000005
C      48.058150000000005     52.616084999999991     48.073650000000001
C      50.061749999999996     47.852584999999998     43.859150000000000
C      50.261249999999997     47.172684999999994     42.571550000000002
C      49.761749999999999     47.606584999999988     46.828350000000000
C      49.514149999999994     49.014184999999991     46.617649999999998
C      49.210749999999997     50.259984999999993     47.403149999999997
C      48.454149999999991     51.239584999999998     48.186650000000000
C      49.613849999999992     46.231584999999988     47.240349999999992
C      49.260550000000002     45.074384999999999     48.142750000000007
C      49.540849999999999     44.607785000000000     49.616249999999994
C      43.733849999999997     44.686784999999993     44.790750000000003
C      51.359450000000002     46.243684999999992     42.194749999999999
C      48.711250000000000     44.096984999999997     45.734650000000002
C      44.604149999999997     44.012984999999993     47.227249999999998
C      45.414849999999994     47.928184999999992     44.056449999999998
C      45.372750000000003     47.584984999999996     42.622150000000005
C      46.467849999999991     48.407784999999997     41.931849999999997
C      47.363549999999996     49.189684999999990     44.323850000000007
C      46.285350000000001     48.641884999999995     45.019649999999999
C      44.946549999999995     48.098385000000000     45.587350000000001
C      47.115349999999999     49.795684999999999     41.835049999999995
C      47.189450000000001     48.970484999999989     42.952750000000009
C      48.091549999999991     50.207184999999988     40.771250000000009
C      47.829050000000002     49.508884999999999     39.481350000000006
C      50.494549999999997     45.433284999999991     50.549849999999992
C      50.851549999999996     45.008584999999989     51.941249999999997
C      49.508249999999997     45.391884999999995     52.914850000000001
C      50.990549999999992     45.802284999999991     53.238250000000008
C      51.878350000000005     45.268984999999994     54.331150000000008
C      51.777949999999997     43.800284999999995     54.194150000000008
C      52.575550000000000     46.151984999999989     55.377150000000000
C      52.018149999999999     43.232884999999989     55.563249999999996
C      52.994149999999998     45.516684999999988     56.609250000000003
C      52.576749999999997     44.102084999999995     56.595950000000002
H      44.281749999999995     47.075984999999996     42.172150000000002
H      46.267450000000004     44.312984999999991     42.824849999999998
H      52.006849999999993     48.773885000000000     42.899950000000004
H      49.905149999999999     50.709784999999989     46.585750000000004
H      48.184750000000001     51.148784999999997     49.311949999999996
H      48.797850000000004     44.786384999999989     50.355050000000006
H      50.017949999999992     43.603384999999996     49.586449999999999
H      43.954749999999997     44.507584999999999     43.734549999999999
H      42.767350000000000     44.602884999999993     45.110650000000007
H      49.497849999999993     43.956184999999998     44.978149999999999
H      48.393750000000004     43.122785000000000     46.061250000000001
H      44.059149999999995     42.975684999999991     47.361049999999992
H      44.548250000000003     44.937584999999991     47.755949999999999
H      45.416949999999993     43.552585000000001     47.655650000000009
H      48.390549999999998     49.287384999999993     44.947749999999999
H      48.175049999999992     51.218685000000001     40.681150000000002
H      49.181449999999991     50.375184999999995     41.331249999999997
H      46.768549999999998     49.059984999999990     39.481250000000003
H      47.650449999999999     50.105584999999998     38.449349999999995
H      48.436850000000000     48.596784999999990     39.471950000000007
H      50.250650000000000     49.583484999999989     42.677850000000007
H      51.172549999999994     45.850884999999998     50.008150000000001
H      49.625650000000000     46.206285000000001     50.421750000000003
H      51.514549999999993     44.044184999999992     51.880850000000009
H      49.192149999999991     44.376185000000000     53.236549999999994
H      48.917849999999994     46.141284999999989     53.229050000000001
H      50.847850000000001     43.598284999999997     53.586849999999998
H      51.417149999999999     46.864784999999991     53.080150000000003
H      52.426349999999992     47.178284999999995     55.273949999999999
H      51.607949999999995     42.351684999999996     56.015749999999997
H      53.232650000000000     45.928184999999992     57.414950000000005
H      52.468550000000000     43.519784999999992     57.550650000000005
O      52.188150000000000     45.611084999999996     41.801450000000003
O      47.766550000000002     53.648315000000004     47.672950000000000
O      44.369650000000000     47.187784999999998     46.164650000000009
