123

C      53.935200000000002     50.784499999999994     45.771199999999993
C      48.943300000000008     44.302900000000001     48.558299999999988
C      48.465299999999999     42.878999999999998     48.899400000000000
C      52.883700000000005     43.620200000000004     45.585200000000000
C      50.204999999999998     44.779499999999999     48.176499999999990
C      49.501500000000007     41.740380000000002     48.619699999999995
C      52.137600000000006     43.239210000000000     46.697000000000003
C      52.936599999999999     42.221570000000000     46.056100000000001
C      51.043199999999999     43.550100000000000     47.817299999999989
C      50.682400000000001     42.156330000000004     48.012799999999999
C      47.816900000000004     45.328200000000002     48.565899999999999
C      46.570700000000002     44.642400000000002     49.009399999999999
C      46.314800000000005     43.218430000000005     49.418499999999995
C      47.299700000000001     42.171939999999999     49.247299999999996
C      47.815899999999999     46.813099999999999     48.352199999999996
C      46.444299999999998     47.494100000000003     48.155299999999997
C      45.287900000000008     46.510800000000003     48.425299999999993
C      45.191800000000001     45.174900000000001     49.001700000000000
C      50.392099999999999     46.259300000000003     47.960499999999996
C      45.077500000000001     42.461130000000004     50.103199999999987
C      44.913300000000007     41.038800000000002     50.352399999999989
C      45.974400000000003     40.194060000000000     49.978399999999993
C      47.234600000000000     40.602090000000004     49.486899999999991
C      43.961700000000008     44.581200000000003     49.508599999999987
C      43.825900000000004     43.253509999999999     50.169299999999993
C      48.398600000000002     39.606090000000002     49.346400000000003
C      49.365700000000004     40.302849999999999     48.501599999999996
C      51.638500000000008     47.149200000000000     47.892200000000003
C      51.504500000000007     46.516200000000005     46.575899999999990
C      42.503200000000007     44.767900000000004     49.298099999999991
C      51.585400000000007     48.551000000000002     48.594899999999996
C      48.956100000000006     38.799039999999998     50.544200000000004
C      45.885300000000001     38.714490000000005     50.614999999999995
C      48.718400000000003     38.831510000000002     48.063599999999994
C      45.709800000000001     47.815600000000003     49.546899999999994
C      49.251000000000005     53.370700000000006     49.217799999999997
C      49.837000000000003     53.468499999999999     47.882599999999996
C      53.091500000000011     52.350500000000004     47.171199999999999
C      49.362700000000004     52.042999999999999     49.944099999999992
C      51.650900000000007     51.903299999999994     47.172499999999999
C      50.095100000000002     50.958199999999998     49.256799999999998
C      50.675899999999999     51.201500000000003     47.936199999999999
C      50.391800000000003     52.379300000000008     47.050399999999996
C      48.630600000000001     54.492600000000003     50.049299999999988
C      48.423699999999997     55.730800000000002     49.168499999999995
C      48.526800000000009     55.600400000000000     47.866999999999990
C      49.106099999999998     54.585200000000000     47.035499999999999
C      48.436599999999999     54.389800000000001     51.459399999999988
C      47.689599999999999     55.413199999999996     52.150399999999991
C      47.576900000000009     56.737500000000004     51.573300000000003
C      47.894100000000009     56.862000000000002     49.984600000000000
C      48.677999999999997     53.103900000000003     52.195700000000002
C      49.018500000000003     52.064900000000002     51.357199999999992
C      49.607399999999998     50.486600000000003     51.562299999999993
C      50.534100000000009     50.209899999999998     50.407299999999992
C      54.178100000000001     51.300300000000000     46.931799999999996
C      48.536100000000005     54.137000000000000     45.665599999999998
C      50.094099999999997     54.957199999999993     45.952499999999986
C      50.736500000000007     48.773299999999999     50.005699999999990
C      48.707999999999998     57.620899999999999     51.410200000000003
C      52.032100000000000     50.540700000000001     50.779600000000002
C      46.175899999999999     48.165199999999999     46.915399999999991
C      48.855900000000005     45.204799999999999     43.879099999999994
C      47.248800000000003     47.012799999999999     44.825299999999999
C      46.650700000000001     47.963400000000000     45.584400000000002
C      46.159900000000007     48.239300000000000     44.320399999999992
C      48.585599999999999     46.736200000000004     43.745899999999992
C      47.335200000000000     45.733100000000000     45.537399999999991
C      48.374099999999999     44.741199999999999     45.258600000000001
H      52.573999999999998     44.653799999999997     45.669499999999999
H      53.701000000000008     41.671469999999999     46.709999999999994
H      51.489000000000004     41.549700000000001     47.661499999999990
H      44.273700000000005     46.654400000000003     48.184699999999992
H      43.947900000000004     40.554589999999997     50.869599999999991
H      42.889600000000002     42.885790000000000     50.600399999999993
H      52.524400000000000     46.563099999999999     48.232099999999988
H      50.994300000000010     45.682900000000004     46.078900000000004
H      52.014300000000006     47.310700000000004     45.853300000000004
H      51.403800000000004     49.142600000000002     47.915700000000001
H      52.669100000000000     48.304600000000001     48.646299999999997
H      50.040500000000009     39.188189999999999     51.024699999999996
H      48.733300000000000     37.410699999999999     50.886099999999999
H      48.594999999999999     39.224519999999998     51.375899999999987
H      45.692700000000002     38.750819999999997     51.665300000000002
H      45.253900000000002     37.905639999999998     50.058899999999994
H      46.943700000000007     38.352750000000000     50.083100000000002
H      49.353400000000008     38.070590000000003     48.182999999999993
H      47.937200000000004     38.988880000000002     47.381000000000000
H      46.173000000000002     48.737100000000005     49.728999999999999
H      44.635199999999998     48.521400000000000     49.615299999999991
H      53.662700000000001     52.468499999999999     48.170599999999993
H      48.404499999999999     56.384599999999999     47.175399999999996
H      47.686900000000009     55.256099999999996     53.258499999999998
H      46.850900000000010     57.464199999999998     51.903799999999990
H      48.471200000000010     52.917300000000004     53.210799999999992
H      48.738799999999998     49.709600000000002     51.622299999999996
H      50.052400000000006     50.534600000000005     52.523399999999995
H      50.089600000000004     52.170200000000001     46.058199999999999
H      47.875399999999999     54.756999999999998     45.156099999999995
H      48.897599999999997     53.221300000000006     45.268599999999992
H      50.941200000000009     55.038699999999999     46.546199999999999
H      49.875200000000007     55.917999999999999     45.492499999999993
H      51.366200000000006     48.114200000000004     50.657699999999991
H      49.681100000000001     48.003399999999999     50.067299999999989
H      47.453200000000010     57.751300000000008     49.242300000000000
H      49.577399999999997     57.237900000000003     51.959999999999994
H      48.872100000000003     58.589300000000001     51.368699999999990
H      52.852100000000007     49.842199999999998     50.670599999999993
H      52.405500000000004     51.399800000000006     50.202299999999994
H      52.334000000000003     51.192399999999999     51.703399999999988
H      49.363500000000002     48.294000000000004     47.526499999999999
H      54.575800000000001     50.495899999999999     47.646999999999991
H      45.396299999999997     48.851599999999998     47.194299999999998
H      45.174400000000006     47.799700000000001     43.915899999999993
H      49.647400000000005     44.647100000000002     43.456800000000001
H      49.464600000000004     47.158400000000000     44.066800000000001
H      46.546999999999997     49.113700000000001     43.579099999999997
H      48.422800000000009     47.176499999999997     42.741500000000002
H      46.611900000000006     45.191200000000002     46.396099999999990
H      48.353900000000010     43.860900000000001     45.679400000000001
N      49.135599999999997     47.263100000000001     47.990799999999993
O      54.007700000000000     50.072499999999998     44.792099999999991
O      41.424199999999999     44.958300000000001     48.976299999999995
