22

C      46.564149999999998     47.122050000000002     49.245699999999992
C      45.810649999999995     48.441550000000007     49.726999999999990
C      50.239749999999987     49.892349999999993     46.207200000000000
C      45.838449999999995     49.454650000000001     48.396299999999997
C      47.514550000000000     47.318150000000003     47.958599999999990
C      46.966249999999988     48.567149999999998     47.551000000000002
C      48.644050000000007     46.608350000000002     47.389099999999999
C      47.876749999999987     49.457250000000002     46.825899999999990
C      49.553550000000001     47.441150000000007     46.647800000000004
C      49.213250000000002     48.805549999999997     46.531799999999990
H      46.945350000000005     46.614450000000005     50.232699999999994
H      45.824349999999995     46.533950000000004     48.885999999999996
H      46.455050000000000     48.980649999999997     50.447400000000002
H      44.785650000000004     48.500349999999997     50.362099999999998
H      50.389150000000001     50.470149999999990     47.168899999999994
H      51.214349999999996     49.432449999999989     46.108999999999995
H      46.205250000000007     50.432450000000003     48.789800000000000
H      44.965450000000004     49.838149999999999     47.752899999999997
H      48.850750000000005     45.446650000000005     47.564399999999992
H      47.534750000000003     50.373750000000001     46.574299999999994
H      50.637050000000002     47.162149999999997     46.204799999999992
H      49.957349999999991     50.553349999999995     45.552599999999998
