119

C      45.705699999999993     47.950149999999994     48.514200000000002
C      49.355100000000000     48.085050000000003     51.938700000000004
C      52.258900000000004     48.770549999999993     50.137700000000002
C      49.204799999999999     51.315350000000002     46.951100000000004
C      50.510899999999999     50.733449999999998     47.020900000000005
C      49.023000000000003     47.057949999999998     49.604500000000009
C      53.353400000000001     49.491650000000000     49.933700000000009
C      51.393700000000003     51.775349999999996     48.008800000000008
C      51.017000000000003     50.296950000000002     48.205800000000004
C      49.992600000000003     48.223449999999993     49.432499999999997
C      51.113000000000000     49.061450000000001     49.188000000000009
C      47.995200000000004     48.320349999999998     51.994800000000005
C      48.401500000000006     47.337949999999999     51.006800000000005
C      50.720500000000008     48.730049999999999     52.162700000000008
C      52.016799999999996     48.670250000000003     51.692200000000007
C      47.948500000000003     51.446249999999999     46.391100000000009
C      53.030900000000010     53.589549999999996     47.107400000000005
C      53.289200000000001     53.623449999999998     48.619500000000009
C      52.590799999999994     52.384949999999996     48.176800000000007
C      47.583999999999996     49.754249999999992     51.264600000000009
C      46.557200000000002     48.844050000000003     51.942200000000007
C      45.263500000000001     48.959749999999993     51.885700000000007
C      48.512200000000000     48.389049999999990     48.978900000000003
C      47.665699999999994     49.765849999999993     49.649300000000004
C      53.944899999999997     49.979049999999994     51.173800000000007
C      53.223000000000006     49.272849999999998     52.201299999999996
C      52.458100000000009     47.357250000000001     50.879500000000014
C      50.476400000000005     52.850549999999991     48.709100000000014
C      49.198399999999999     53.504449999999999     47.744000000000007
C      48.157400000000003     52.445649999999993     47.489000000000004
C      54.549399999999999     53.916549999999994     49.289999999999999
C      47.144200000000005     50.371049999999990     45.564900000000002
C      46.972699999999996     52.605550000000001     48.409600000000005
C      51.273099999999992     50.180149999999990     45.902100000000011
C      47.623899999999999     44.913149999999995     47.145700000000005
C      46.198500000000003     45.309049999999992     47.519300000000008
C      44.074199999999998     47.597549999999991     44.382900000000006
C      43.561300000000003     46.384449999999994     45.078800000000008
C      48.393400000000007     45.745749999999994     46.068300000000008
C      45.035900000000005     46.614950000000000     47.682800000000007
C      45.589000000000006     47.485949999999995     44.346500000000006
C      44.407000000000004     45.133749999999999     45.608600000000003
C      46.217599999999997     46.513849999999998     45.297800000000002
C      45.478999999999999     45.936349999999997     46.404000000000003
C      47.942100000000003     43.724950000000000     47.805800000000005
C      49.145299999999999     42.752450000000003     48.252900000000004
C      46.761500000000005     43.209749999999993     48.592200000000012
C      45.676000000000002     44.126150000000003     48.200900000000004
C      43.397700000000000     48.607149999999997     43.507400000000011
C      42.010200000000005     48.190849999999990     43.404400000000003
C      41.501800000000003     47.128549999999997     44.282400000000003
C      42.060400000000001     46.060749999999992     45.137800000000006
C      47.677399999999999     46.609450000000002     45.124300000000005
C      49.881399999999999     45.826549999999990     46.157100000000007
C      50.090499999999999     43.749949999999991     48.461300000000008
C      43.662799999999997     46.635150000000003     48.432900000000004
C      43.203400000000002     45.176849999999995     48.599500000000006
C      44.669499999999999     43.793749999999996     45.404400000000003
C      43.847200000000001     43.071049999999993     49.757100000000015
C      50.836700000000000     47.011249999999997     46.237200000000009
C      42.831299999999999     47.633549999999993     47.737100000000005
C      50.660100000000007     48.539349999999992     45.661900000000010
H      44.377200000000002     48.418349999999997     52.297900000000006
H      46.126799999999996     48.755949999999991     47.970600000000005
H      46.500700000000002     47.628650000000000     49.269300000000008
H      44.845400000000005     48.369549999999997     49.120300000000007
H      44.371600000000001     42.096849999999996     50.330900000000007
H      47.387499999999996     49.214549999999996     45.801500000000011
H      50.712899999999998     48.998749999999994     53.262099999999997
H      48.143599999999999     50.587550000000000     51.445600000000006
H      44.952800000000003     49.865249999999996     50.990200000000009
H      49.096299999999992     45.991750000000003     49.189100000000003
H      48.092300000000002     48.026350000000001     48.019400000000005
H      46.686100000000003     49.996749999999999     49.145900000000005
H      47.951299999999996     50.599749999999993     49.298899999999996
H      53.197700000000005     50.365049999999989     49.172500000000007
H      54.031900000000000     48.891950000000001     49.256700000000002
H      53.307099999999998     49.425649999999997     53.213700000000003
H      54.687800000000003     50.614349999999995     51.348900000000008
H      53.568700000000000     47.245049999999999     51.059800000000003
H      52.081700000000005     46.424149999999990     50.704600000000006
H      51.085599999999992     53.623649999999991     49.163400000000003
H      50.062000000000005     52.313749999999992     49.436200000000007
H      48.728500000000004     54.284249999999993     48.345900000000007
H      49.455800000000004     54.113449999999993     46.875100000000003
H      52.250200000000000     53.941549999999999     45.342400000000005
H      45.989700000000006     50.466149999999992     45.831600000000002
H      46.830199999999998     50.768650000000001     44.617800000000010
H      46.264699999999998     53.421849999999999     48.356500000000004
H      47.066600000000001     52.291849999999990     49.495600000000003
H      46.432899999999997     51.898449999999990     47.997400000000006
H      51.534100000000002     50.814749999999997     45.096200000000003
H      52.356600000000007     50.134049999999995     45.984300000000005
H      46.190099999999994     48.076850000000000     43.647300000000008
H      49.265099999999997     41.694049999999997     47.886900000000004
H      46.628500000000003     42.291049999999991     49.153000000000006
H      44.041000000000004     49.336949999999995     42.908400000000007
H      41.341999999999999     48.533449999999995     42.737900000000003
H      40.501399999999997     47.167449999999995     44.014700000000005
H      41.619800000000005     45.436149999999991     45.822500000000005
H      47.752900000000004     46.943750000000001     44.086600000000011
H      50.091100000000004     44.741049999999994     45.997900000000008
H      51.088699999999996     43.464750000000002     48.734500000000004
H      49.714599999999997     44.460249999999995     49.023000000000003
H      43.946000000000005     47.039949999999997     49.500100000000010
H      42.850200000000001     45.303849999999990     47.523700000000005
H      42.345199999999998     45.176049999999996     49.320799999999998
H      51.842199999999998     46.408849999999994     46.054600000000008
H      50.942900000000002     47.331349999999993     47.294200000000004
H      42.207700000000003     48.205549999999995     48.446900000000007
H      42.161000000000001     47.133949999999992     47.094500000000004
H      43.744999999999997     48.375949999999996     46.981100000000005
H      49.840400000000002     48.499249999999996     46.248500000000007
H      50.277300000000004     48.272349999999996     44.614900000000006
N      44.261699999999998     43.989550000000001     48.645100000000006
O      55.498600000000003     54.305950000000003     49.817500000000017
O      53.226499999999994     53.981850000000001     45.956600000000002
O      45.113300000000002     42.761350000000000     45.443700000000007
O      42.787399999999998     42.943549999999995     50.265800000000006
