22

C      48.271449999999994     50.309399999999982     48.556849999999997
C      49.208249999999992     49.785600000000002     49.687149999999988
C      48.038349999999994     49.471400000000003     47.010450000000006
C      49.138249999999999     48.054800000000000     49.643749999999997
C      47.934449999999998     47.939899999999994     47.194950000000006
C      48.363249999999994     47.454099999999997     48.470250000000007
C      46.953549999999993     47.361900000000006     46.244050000000001
C      47.440249999999992     46.504000000000005     49.001949999999994
C      46.419449999999998     46.040999999999997     46.600449999999995
C      46.936849999999993     45.536599999999993     47.863749999999996
H      48.394449999999992     51.318700000000007     48.139349999999993
H      47.237150000000000     49.936700000000002     48.673550000000006
H      48.835149999999999     50.007000000000005     50.817149999999998
H      50.134649999999993     50.050700000000006     49.397750000000002
H      47.322949999999992     49.879199999999997     46.454049999999995
H      48.919449999999998     49.495599999999996     46.313550000000006
H      50.281350000000003     47.670900000000003     49.695350000000005
H      48.607649999999992     47.716799999999992     50.491049999999987
H      46.638849999999991     47.889099999999999     45.182850000000002
H      47.421949999999995     46.213300000000004     50.005549999999999
H      45.718649999999997     45.582399999999993     45.954149999999998
H      46.438149999999993     44.681299999999993     48.098650000000006
