22

C      49.065459999999987     49.756249999999994     46.815349999999995
C      48.908450000000002     50.355450000000005     48.415749999999996
C      49.415409999999994     48.217250000000007     46.672149999999995
C      47.717540000000000     49.517250000000004     49.217149999999997
C      48.529949999999999     47.529849999999996     47.878449999999994
C      47.397220000000004     47.963850000000008     48.724449999999997
C      48.290149999999997     46.153450000000007     47.469249999999995
C      46.463809999999995     47.201750000000004     49.331150000000001
C      47.151049999999998     45.394750000000002     48.083049999999993
C      46.294989999999999     45.793549999999996     49.114449999999998
H      49.565410000000000     50.371250000000003     46.180450000000000
H      48.091070000000002     49.743150000000000     46.374850000000002
H      48.824349999999995     51.334649999999996     48.569349999999993
H      49.770679999999999     50.191550000000007     48.812750000000001
H      50.542050000000003     48.182450000000003     46.698950000000004
H      49.083240000000004     47.749549999999999     45.718049999999998
H      46.634749999999997     50.030850000000001     48.989049999999999
H      47.865669999999994     49.441350000000000     50.281950000000002
H      49.050200000000004     45.733850000000004     46.809049999999992
H      45.732479999999995     47.569050000000004     49.919750000000001
H      46.472099999999998     44.665350000000004     47.565649999999998
H      45.457949999999997     45.206050000000005     49.331650000000003
