22

C      47.316449999999989     50.514499999999998     47.329899999999995
C      47.612150000000007     49.755999999999993     45.942599999999999
C      47.914350000000006     50.051600000000001     48.697099999999992
C      48.624249999999996     48.538900000000005     46.510700000000000
C      48.049749999999996     48.476199999999999     48.704799999999992
C      48.351850000000006     47.655300000000004     47.488099999999989
C      47.427749999999996     47.653100000000002     49.759500000000003
C      48.159050000000001     46.221399999999996     47.379300000000001
C      47.079749999999997     46.328700000000005     49.713799999999992
C      47.511149999999994     45.572899999999997     48.464500000000001
H      47.934249999999999     51.434900000000006     47.234499999999997
H      46.391349999999996     51.018300000000004     47.361699999999999
H      48.156550000000003     50.690000000000005     45.617499999999993
H      46.702949999999994     49.387200000000000     45.482900000000001
H      49.097749999999998     50.517699999999998     48.718399999999988
H      47.133350000000000     50.714300000000001     49.065099999999987
H      49.608650000000004     49.060799999999993     46.778300000000002
H      48.865950000000005     48.155499999999996     45.389200000000002
H      47.039250000000003     48.231900000000003     50.610799999999998
H      48.430150000000005     45.665200000000006     46.441699999999997
H      46.505050000000004     45.742600000000003     50.498199999999983
H      47.380050000000004     44.565099999999994     48.238299999999995
