22

C      49.796949999999995     46.435349999999993     46.631614999999996
C      48.328650000000003     46.221249999999998     46.006714999999986
C      49.946350000000002     47.460949999999997     47.811814999999996
C      47.563749999999999     47.855350000000001     45.918314999999993
C      48.776049999999998     48.290849999999992     48.165614999999988
C      47.543750000000003     48.428049999999999     47.334214999999986
C      48.709350000000001     49.280850000000001     49.166314999999997
C      46.384149999999998     49.091149999999999     47.897214999999989
C      47.689349999999997     50.101749999999996     49.883494999999996
C      46.495649999999998     50.065150000000003     49.041114999999991
H      50.437649999999998     46.838149999999999     45.737314999999995
H      50.273050000000005     45.498449999999991     46.850614999999991
H      48.065150000000003     45.727249999999998     45.116514999999993
H      48.019150000000003     45.496250000000003     46.568614999999994
H      50.221650000000004     47.042949999999990     48.642514999999989
H      50.600250000000003     48.340549999999993     47.301514999999995
H      48.486249999999998     48.444749999999999     45.372014999999990
H      46.611950000000000     47.696849999999998     45.211114999999992
H      49.415849999999999     49.283349999999999     50.071490999999995
H      45.793250000000000     49.420249999999996     46.932714999999988
H      47.729649999999999     50.481650000000002     50.883485000000007
H      45.399749999999997     50.503749999999997     49.271914999999993
