18

C      45.973250000000000     47.623200000000004     48.308049999999987
C      48.201450000000008     46.689800000000005     45.966749999999990
C      47.959050000000005     48.786700000000010     47.730349999999994
C      47.776049999999998     47.277200000000008     46.987549999999999
C      47.259450000000001     47.356800000000007     48.431249999999991
C      47.903550000000010     46.892600000000002     49.509749999999997
C      49.086250000000007     49.225400000000008     48.545749999999998
C      49.138950000000008     47.376500000000007     50.034649999999999
C      49.758949999999999     48.545000000000002     49.678950000000000
H      45.692650000000000     48.700900000000004     48.495749999999987
H      45.247850000000000     47.309300000000007     47.776550000000000
H      47.589150000000004     45.578800000000001     45.650549999999996
H      48.607550000000003     47.377700000000004     45.117249999999999
H      47.375450000000001     49.540599999999998     47.091649999999994
H      47.533050000000003     45.880000000000010     49.465649999999997
H      49.483550000000008     50.421199999999999     48.832849999999993
H      49.618150000000000     46.800800000000010     50.882750000000001
H      50.752150000000000     48.866300000000010     50.154149999999994
