22

C      45.587849999999996     49.203749999999985     47.959450000000004
C      45.351849999999999     47.900639999999996     48.648349999999994
C      46.969350000000006     49.041179999999997     46.935350000000000
C      46.527550000000005     47.031189999999995     49.218249999999998
C      48.045250000000010     48.045220000000000     47.270349999999993
C      47.928950000000000     47.516099999999994     48.680350000000004
C      49.430350000000004     48.079250000000002     46.728149999999999
C      49.113050000000001     47.288029999999992     49.454049999999995
C      50.449350000000010     48.115020000000001     47.703149999999994
C      50.486750000000001     47.637630000000001     49.024550000000005
H      45.561350000000004     50.011480000000006     48.967349999999996
H      44.609250000000003     49.318420000000003     47.354749999999996
H      44.553950000000000     47.686380000000000     49.321249999999992
H      45.032049999999998     47.081299999999999     47.809849999999997
H      47.267650000000003     49.854469999999992     46.473849999999999
H      46.467449999999999     48.850579999999994     45.871449999999996
H      46.453450000000004     45.988519999999994     49.450350000000000
H      46.768749999999997     47.506439999999998     50.148349999999994
H      49.381050000000002     48.621409999999997     45.581950000000006
H      48.935249999999996     46.560789999999997     50.418049999999994
H      51.446050000000000     48.558019999999999     47.576949999999997
H      51.389550000000000     47.582059999999998     49.730649999999997
