22

C      49.297249999999991     46.889799999999994     46.444049999999997
C      50.260050000000000     48.183599999999998     46.701149999999998
C      48.706350000000008     46.338300000000004     47.871150000000000
C      49.227049999999998     49.469800000000006     46.815750000000008
C      47.807949999999998     47.404399999999995     48.155749999999998
C      48.003949999999996     48.763000000000005     47.697650000000010
C      46.718849999999996     47.150400000000005     49.050550000000001
C      46.817850000000000     49.617400000000004     47.851650000000006
C      45.877850000000002     48.122299999999996     49.630450000000010
C      45.909050000000001     49.359599999999986     48.886049999999997
H      48.411049999999996     47.110500000000002     45.726050000000001
H      49.639150000000008     46.054299999999998     45.934650000000005
H      51.049450000000000     48.210199999999986     45.724249999999998
H      50.789049999999996     48.060400000000001     47.686750000000004
H      48.099650000000004     45.389300000000006     47.616650000000007
H      49.500250000000001     46.169100000000000     48.548650000000009
H      49.871350000000000     50.294499999999999     47.381050000000002
H      48.682150000000000     49.639399999999995     45.946150000000003
H      46.802849999999999     46.170000000000002     49.041250000000005
H      47.050649999999997     50.610699999999994     47.420749999999998
H      45.126250000000006     47.860500000000002     50.275750000000002
H      44.950550000000000     50.057800000000000     48.850750000000005
