150

C      49.870699999999985     47.558650000000000     43.351849999999992
C      49.382500000000007     44.016050000000007     42.635150000000003
C      48.075000000000003     43.424650000000000     42.947649999999996
C      47.927500000000009     45.192250000000001     44.807650000000002
C      49.752500000000012     45.172649999999990     43.452849999999998
C      48.640500000000003     44.287549999999996     43.893049999999995
C      46.763400000000004     45.649349999999998     45.434449999999998
C      50.553399999999996     46.393349999999998     44.035150000000002
C      43.397100000000009     49.370649999999998     43.015949999999997
C      43.533300000000011     50.720749999999995     45.297949999999993
C      45.066700000000012     48.222149999999999     47.774349999999998
C      43.424000000000007     44.262749999999997     48.229550000000003
C      43.139099999999999     49.796949999999995     44.380249999999990
C      44.842500000000001     46.679850000000002     47.783250000000002
C      44.865000000000009     48.711250000000007     46.479750000000003
C      44.576400000000007     45.318550000000002     48.265949999999997
C      43.975100000000012     49.384150000000005     45.628950000000003
C      45.845800000000011     45.580550000000002     47.528649999999992
C      45.000399999999999     42.137349999999998     48.495049999999992
C      43.649500000000003     42.840050000000005     47.769750000000002
C      47.101200000000006     45.040549999999996     48.100849999999994
C      44.260800000000003     49.187849999999997     48.798549999999992
C      46.384600000000006     48.642049999999998     47.196849999999998
C      43.913499999999999     42.967549999999989     49.183949999999996
C      47.260500000000008     54.616150000000005     44.603249999999996
C      47.392800000000008     53.182249999999996     44.797950000000000
C      42.571100000000001     54.252249999999989     46.628549999999997
C      42.609800000000007     52.708249999999992     46.261350000000000
C      46.087400000000002     55.162549999999996     45.130749999999992
C      46.155400000000000     52.273550000000000     45.072350000000000
C      43.780000000000001     55.137450000000001     46.364049999999999
C      43.782700000000006     52.075049999999990     45.745649999999998
C      44.929800000000000     54.409649999999999     45.697449999999996
C      45.033100000000005     53.000450000000001     45.529749999999993
C      48.508700000000005     55.391249999999999     44.065149999999996
C      49.533700000000010     54.629350000000002     43.442349999999998
C      49.595500000000001     53.210549999999998     43.632349999999995
C      48.453000000000003     52.509149999999991     44.045549999999992
C      41.461600000000004     54.820650000000001     47.370149999999995
C      40.416400000000010     53.823349999999991     47.439349999999990
C      40.283799999999999     52.455449999999999     47.132050000000000
C      41.291000000000011     51.968949999999992     46.346549999999993
C      45.811700000000002     56.703050000000005     44.995750000000001
C      46.611900000000006     57.277549999999991     43.955050000000000
C      47.923200000000008     56.671849999999992     43.609049999999989
C      50.882400000000004     52.130049999999997     43.589050000000000
C      43.616800000000012     56.484150000000000     46.728649999999995
C      39.205500000000001     51.611150000000009     47.401349999999994
C      50.776100000000000     44.454549999999998     51.792949999999990
C      51.768099999999990     44.897949999999994     52.890249999999995
C      54.679699999999997     42.219450000000009     51.447249999999997
C      55.157099999999986     42.769550000000010     52.812350000000002
C      51.619800000000012     43.768450000000001     50.620150000000002
C      55.968500000000006     40.135550000000009     52.391750000000002
C      53.624300000000005     42.777549999999991     50.464549999999996
C      54.163600000000002     43.673349999999999     53.540049999999994
C      52.817900000000009     43.452849999999998     51.399749999999997
C      53.056299999999993     44.136550000000000     52.769849999999998
C      49.452000000000012     44.672849999999997     51.529149999999994
C      48.767499999999998     45.629649999999998     52.391549999999995
C      49.652000000000001     46.304049999999989     53.428649999999998
C      51.117400000000004     46.075249999999997     53.432949999999991
C      55.238500000000002     40.891149999999996     51.378649999999993
C      55.704599999999999     38.629249999999999     52.507849999999998
C      56.753499999999988     40.960650000000001     53.287450000000000
C      56.204599999999999     42.243150000000000     53.604549999999996
C      48.723400000000012     44.098950000000002     50.203449999999989
C      47.805000000000007     45.079350000000005     49.625549999999990
C      47.377900000000011     45.917450000000002     52.036050000000003
C      51.158600000000007     42.271050000000002     49.906149999999997
C      51.529099999999985     43.769750000000002     49.246549999999999
C      52.676800000000000     43.323149999999998     48.268149999999991
C      53.393000000000001     42.262549999999990     49.137549999999990
C      48.725900000000010     42.780749999999998     49.795449999999995
C      48.583600000000004     47.063350000000000     54.248350000000002
C      54.470399999999998     43.581649999999996     44.898649999999996
C      55.388499999999993     44.103650000000002     43.629049999999992
C      53.483999999999995     44.886249999999990     45.406649999999999
C      54.740099999999998     45.671850000000006     43.390349999999998
C      52.715600000000009     45.044750000000008     44.137749999999997
C      53.246800000000007     45.729950000000002     42.956649999999996
C      52.341400000000007     46.529250000000005     43.835549999999998
C      52.935000000000002     44.963349999999991     41.643250000000002
C      52.069799999999987     43.806449999999998     43.488849999999999
C      52.243700000000004     43.899949999999990     42.054250000000003
H      47.430800000000005     42.721750000000000     42.380150000000000
H      48.081000000000003     44.274850000000001     45.454949999999997
H      50.059300000000007     46.737650000000002     44.961449999999992
H      44.814200000000000     41.124350000000007     48.790949999999995
H      43.129700000000000     42.277550000000005     46.913349999999994
H      42.589900000000000     44.697449999999989     48.797349999999994
H      44.518700000000010     49.274549999999991     50.055149999999998
H      43.180700000000002     49.017649999999989     49.277649999999994
H      44.385300000000001     50.236049999999992     48.391749999999995
H      38.161100000000005     52.144750000000002     47.523549999999993
H      46.953600000000009     47.792349999999999     46.868150000000000
H      46.515400000000000     49.631149999999991     47.416150000000002
H      43.657600000000002     42.604450000000000     50.064250000000001
H      45.923600000000008     42.599649999999997     48.046450000000000
H      46.047800000000009     51.279449999999997     44.691849999999995
H      50.267099999999999     55.437349999999995     42.998750000000001
H      48.494700000000009     51.352350000000001     44.189649999999993
H      41.623699999999999     55.668949999999995     47.998649999999991
H      39.819600000000008     54.503150000000005     48.246949999999998
H      41.116100000000003     51.035950000000000     45.874549999999992
H      45.098900000000000     57.425749999999994     45.434449999999998
H      46.252400000000009     58.122050000000002     43.486949999999993
H      48.483300000000000     56.926349999999999     42.683549999999997
H      50.533000000000001     51.091049999999996     43.246249999999996
H      51.968299999999985     52.679749999999999     43.136049999999997
H      51.124400000000009     51.553250000000006     44.573649999999994
H      44.291600000000003     57.291049999999998     46.453350000000000
H      42.499099999999999     56.770949999999999     46.770849999999996
H      39.556600000000003     51.007350000000002     48.319450000000003
H      39.344400000000007     50.609549999999999     46.752749999999992
H      46.125600000000006     46.687449999999998     50.371849999999995
H      55.444899999999990     37.877949999999998     53.417549999999991
H      54.599400000000003     44.149249999999995     54.520749999999992
H      52.151700000000005     46.544650000000004     53.910950000000000
H      55.160999999999987     40.371049999999997     50.367449999999991
H      57.838899999999995     40.652650000000008     53.869349999999997
H      56.242299999999986     42.921850000000006     54.528949999999995
H      46.593500000000006     46.596649999999997     52.785249999999998
H      52.211800000000011     43.048249999999996     47.320449999999994
H      53.182299999999998     44.248750000000001     47.912149999999997
H      50.766299999999987     44.434249999999992     48.769949999999994
H      54.046199999999985     41.545550000000006     48.650949999999995
H      47.584400000000002     47.487850000000009     53.886949999999992
H      49.336800000000011     48.050449999999998     54.082849999999993
H      48.502300000000005     47.384850000000000     55.316749999999999
H      55.055199999999999     42.965350000000001     45.587049999999998
H      53.760099999999994     42.821149999999989     44.618349999999992
H      56.359100000000012     43.770249999999990     43.637749999999997
H      54.966200000000001     43.693550000000002     42.629350000000002
H      52.805300000000003     44.589050000000000     46.297449999999998
H      53.986900000000006     45.548450000000003     46.091749999999998
H      54.939599999999999     45.799949999999995     44.450949999999992
H      55.428600000000003     46.243049999999997     42.911749999999998
H      52.777300000000011     47.610050000000001     44.538349999999994
H      52.884299999999996     45.548850000000002     40.683250000000001
H      51.498200000000011     42.940849999999998     44.025750000000002
H      51.622600000000006     43.419550000000001     41.228749999999998
N      47.019500000000008     45.906049999999993     50.598849999999999
O      49.353999999999999     48.374049999999997     42.953949999999992
O      45.799600000000012     45.935950000000005     46.050449999999991
O      48.261200000000002     45.443749999999994     48.041950000000000
O      43.362500000000011     48.635649999999998     42.193550000000002
O      48.229700000000008     41.959249999999997     49.093949999999992
O      56.492699999999985     38.768950000000004     51.547449999999998
O      51.251100000000008     41.184550000000002     49.556950000000001
