22

C      46.355099999999993     46.688099999999991     48.564599999999984
C      45.926600000000001     49.333500000000008     48.685599999999994
C      49.918600000000005     48.536600000000000     49.257499999999993
C      45.633800000000001     47.172999999999995     47.088300000000004
C      49.044499999999992     47.545600000000000     48.466099999999997
C      48.003599999999999     48.045999999999999     47.510899999999992
C      50.394100000000002     47.800999999999995     48.058800000000005
C      46.580599999999997     48.043900000000001     47.924999999999997
C      50.190199999999997     48.657800000000002     46.641300000000001
C      48.793600000000005     48.772299999999994     46.433800000000005
H      45.669100000000000     46.727600000000002     49.506399999999999
H      47.144500000000001     45.965899999999998     48.282100000000000
H      44.915900000000001     49.702099999999994     48.396299999999997
H      45.737500000000004     49.005499999999998     49.710300000000004
H      49.884700000000002     49.685399999999994     49.076700000000002
H      50.106200000000008     48.195299999999996     50.264800000000008
H      46.706400000000002     50.034100000000002     48.614000000000004
H      44.583199999999998     47.534799999999997     46.988799999999998
H      51.416800000000002     47.083500000000008     47.705399999999997
H      46.424500000000002     46.904699999999998     46.306100000000001
H      50.889999999999993     49.242500000000000     46.247299999999996
H      48.266599999999997     49.523800000000001     45.735199999999992
