22

C      46.084649999999996     46.012249999999995     47.677499999999988
C      47.538950000000000     45.850049999999996     47.089399999999998
C      46.100249999999996     47.399449999999987     48.733099999999993
C      48.723949999999995     46.146249999999995     48.279200000000003
C      47.420650000000002     48.172150000000002     48.555799999999991
C      48.808350000000011     47.674549999999996     48.680499999999995
C      47.496249999999996     49.514649999999989     48.131900000000002
C      50.022249999999993     48.220950000000002     48.144399999999990
C      48.697249999999997     50.147349999999989     47.491799999999998
C      50.001050000000006     49.390249999999995     47.436899999999994
H      45.688749999999999     45.172849999999997     48.265900000000002
H      45.646149999999999     46.115749999999991     46.726500000000001
H      47.604950000000009     44.897350000000003     46.518999999999991
H      47.714150000000011     46.739349999999988     46.377600000000001
H      45.626649999999998     47.209549999999993     49.622399999999999
H      45.113250000000001     47.800849999999997     48.190100000000001
H      48.434550000000009     45.554949999999991     49.041899999999998
H      49.564250000000001     45.273049999999998     47.893599999999992
H      46.614350000000002     49.720949999999988     47.686999999999998
H      50.817650000000000     47.579849999999993     47.935800000000000
H      48.792450000000002     51.102649999999997     47.040599999999998
H      50.886749999999999     49.909449999999993     46.773399999999995
