194

C      44.422049999999999     42.186049999999987     50.784899999999993
C      43.670949999999998     40.913049999999991     50.607499999999995
C      43.709950000000006     37.379349999999988     49.544599999999996
C      45.258349999999993     42.528449999999992     49.627400000000002
C      47.839250000000000     39.069349999999986     45.919099999999993
C      44.166549999999994     39.951949999999997     49.593399999999995
C      44.513649999999998     37.040649999999992     48.417299999999997
C      46.868149999999993     42.060749999999992     47.773199999999996
C      47.502649999999996     41.273249999999990     46.901199999999996
C      45.765749999999997     41.582749999999990     48.624999999999993
C      47.155349999999999     39.758949999999984     47.068700000000000
C      45.364449999999998     40.305149999999990     48.648000000000003
C      46.011150000000001     39.284349999999996     47.832799999999999
C      43.417849999999994     38.754649999999984     49.945299999999996
C      45.470650000000006     37.844649999999994     47.661499999999997
C      42.656150000000004     40.321849999999991     51.518899999999995
C      41.173350000000006     39.377749999999992     51.421199999999999
C      42.558850000000000     38.654649999999990     51.295199999999994
C      45.333850000000005     44.003449999999987     49.704400000000000
C      42.987850000000002     37.957949999999997     52.649600000000000
C      44.998349999999995     36.571649999999991     47.194699999999997
C      40.699149999999996     40.586349999999996     50.583700000000000
C      47.751650000000005     43.935149999999993     45.110799999999998
C      47.498950000000001     44.917949999999983     43.767899999999990
C      49.322949999999999     43.832349999999991     44.855799999999995
C      47.485650000000000     43.874449999999996     42.535299999999999
C      50.000050000000002     43.780749999999983     43.275900000000000
C      49.092050000000000     43.665849999999985     42.238499999999995
C      51.190449999999998     44.616749999999996     43.232999999999997
C      49.921349999999997     42.507749999999994     42.533499999999997
C      50.994050000000001     45.966549999999984     42.832999999999991
C      52.117150000000002     46.838349999999991     42.818099999999994
C      51.784650000000006     53.687749999999994     50.423899999999996
C      51.139250000000004     54.944549999999992     50.744499999999995
C      53.117349999999995     59.205649999999991     47.056500000000000
C      52.458850000000005     53.470049999999993     49.147100000000002
C      52.578349999999993     56.895149999999994     46.006499999999996
C      50.991750000000003     56.023449999999997     49.831200000000003
C      52.122049999999994     58.108849999999997     46.690099999999994
C      53.111750000000001     54.539549999999984     46.950600000000001
C      52.803650000000005     55.475549999999984     45.757100000000001
C      52.484249999999996     54.649449999999987     48.253599999999999
C      53.475649999999995     59.356650000000002     48.573799999999999
C      51.726350000000004     55.905549999999991     48.560499999999998
C      51.937950000000001     56.948749999999990     47.406299999999995
C      50.586250000000000     52.947349999999993     52.448999999999991
C      50.433649999999993     51.629849999999990     53.079699999999995
C      50.241550000000004     54.180849999999992     53.046500000000002
C      50.500350000000005     55.203849999999996     52.119499999999995
C      53.837049999999998     53.239749999999987     46.753099999999996
C      54.520750000000000     53.002749999999992     45.516700000000000
C      54.244249999999994     53.840449999999990     44.434599999999996
C      53.946449999999999     60.179149999999993     47.585100000000004
C      54.006350000000005     52.064849999999986     47.666599999999995
C      53.155949999999997     52.186449999999994     48.886599999999994
C      53.388650000000005     55.033749999999984     44.558900000000001
C      51.644849999999998     52.656249999999986     51.349099999999993
C      55.069150000000000     50.856749999999991     47.293699999999994
C      53.339649999999999     59.451650000000001     50.018899999999995
C      54.551149999999993     58.467150000000004     49.142000000000003
C      50.732750000000003     58.719749999999976     46.133900000000004
C      53.955949999999994     45.434949999999986     43.494399999999992
C      53.319550000000000     46.762549999999997     43.714700000000001
C      51.107250000000001     44.532349999999994     52.597199999999994
C      51.395949999999999     45.815249999999992     51.952799999999996
C      54.286350000000006     44.478949999999990     44.482099999999996
C      52.789550000000006     46.929849999999988     45.231999999999992
C      51.557649999999995     43.492749999999994     51.686899999999994
C      51.872349999999997     45.786649999999995     50.688799999999993
C      53.537650000000006     43.171749999999996     46.518000000000001
C      52.667450000000002     42.517349999999993     49.148400000000002
C      52.465049999999998     45.781749999999988     47.437099999999994
C      53.647149999999996     44.485149999999990     45.695900000000002
C      52.890250000000002     45.730149999999995     46.057399999999994
C      52.322550000000000     43.331749999999985     50.417899999999996
C      53.251649999999998     43.224749999999986     47.923799999999993
C      52.379150000000003     44.727049999999991     49.806199999999997
C      52.682250000000003     44.587949999999985     48.364600000000003
C      51.670250000000003     48.388049999999986     50.260799999999996
C      52.181050000000006     47.102849999999997     48.269199999999991
C      52.933850000000000     48.037449999999986     47.387200000000000
C      52.977349999999994     48.150849999999991     45.990699999999997
C      54.360250000000001     47.861349999999987     43.445599999999992
C      53.528050000000000     49.394049999999993     43.837899999999998
C      53.584949999999999     49.438149999999993     45.377199999999995
C      53.200450000000004     41.813349999999993     45.460299999999997
C      54.965449999999997     49.769549999999995     45.984699999999997
C      52.632050000000000     50.637549999999990     45.471600000000002
C      53.613449999999993     41.200649999999996     49.143300000000004
C      51.331950000000006     41.802349999999990     48.823100000000004
C      51.723349999999996     47.065749999999994     49.748300000000000
C      48.601149999999997     37.915649999999992     46.524899999999995
C      54.973549999999996     38.643449999999994     45.309300000000000
C      50.369250000000001     36.686649999999993     45.535999999999994
C      48.951450000000001     36.773549999999993     45.468699999999998
C      51.017749999999999     36.526849999999996     44.178300000000000
C      48.213249999999995     36.236449999999991     44.368299999999998
C      50.240350000000007     35.968649999999997     43.143300000000004
C      48.831249999999997     35.524049999999995     43.350500000000004
C      53.404950000000007     38.292149999999992     47.506999999999998
C      52.254949999999994     40.716749999999990     44.824500000000000
C      52.308649999999993     38.441949999999991     46.448000000000000
C      51.567749999999997     39.633749999999992     45.869399999999999
C      51.010150000000003     37.629549999999995     46.671799999999998
C      53.552250000000001     37.893849999999993     45.867300000000000
C      49.796649999999993     38.544849999999997     47.291100000000000
C      50.434150000000002     39.928549999999987     46.640599999999999
H      55.601149999999997     38.054749999999984     44.809899999999999
H      44.103050000000003     42.811149999999984     51.500599999999991
H      48.552449999999993     41.270149999999994     46.564500000000002
H      43.256650000000000     36.756349999999983     50.232099999999996
H      42.882150000000003     40.482749999999996     52.748399999999997
H      40.684450000000005     39.107149999999997     52.442299999999996
H      47.208350000000003     43.209049999999991     47.951900000000002
H      42.276350000000001     37.755949999999991     53.430000000000000
H      43.385050000000000     38.871749999999992     53.173799999999993
H      44.763050000000000     35.617749999999994     46.787500000000001
H      40.298350000000006     41.467949999999995     51.321700000000000
H      39.848850000000006     40.237249999999996     50.121499999999997
H      41.397050000000000     41.218049999999991     49.855399999999996
H      43.890449999999994     37.443949999999994     52.566299999999991
H      47.361449999999998     44.242749999999994     46.104099999999995
H      47.423850000000002     42.857149999999997     44.926200000000001
H      48.206550000000000     45.786549999999991     43.634099999999997
H      46.650750000000002     45.490349999999992     43.927900000000001
H      49.897350000000003     43.221149999999994     45.319899999999997
H      49.720449999999992     44.717049999999986     45.306300000000000
H      46.706449999999997     44.053449999999984     41.876700000000000
H      47.141049999999993     42.797449999999984     43.060800000000000
H      52.267149999999994     44.298049999999996     43.080800000000004
H      50.179850000000002     41.194549999999992     42.411400000000000
H      49.787550000000003     46.481349999999992     42.584200000000003
H      51.977049999999998     47.762549999999990     42.161200000000001
H      50.300249999999998     57.054449999999996     50.151199999999996
H      49.790649999999999     54.418549999999996     54.123300000000000
H      50.340849999999996     56.232849999999985     52.330700000000000
H      54.894849999999998     51.944649999999996     45.360599999999998
H      54.415049999999994     53.612649999999995     43.507600000000004
H      54.529750000000000     60.916650000000004     47.115000000000002
H      53.312450000000005     51.434049999999985     49.783799999999999
H      52.633050000000004     52.195949999999989     51.642899999999990
H      51.222750000000005     51.768149999999984     50.931400000000004
H      56.151149999999994     50.761249999999990     47.784699999999994
H      54.475249999999996     50.361049999999992     48.170700000000004
H      53.007649999999998     60.491349999999997     49.713000000000001
H      52.538450000000005     59.044449999999983     50.533399999999993
H      54.462549999999993     57.454649999999987     48.919999999999995
H      55.572049999999997     58.861349999999987     49.155899999999995
H      49.923650000000002     57.871349999999993     46.048700000000004
H      50.184950000000001     59.183049999999994     46.878000000000000
H      50.885349999999995     59.541249999999991     45.251799999999996
H      54.282749999999993     45.416149999999988     42.446099999999994
H      50.643049999999995     44.348749999999995     53.656699999999994
H      51.155850000000001     46.653949999999995     52.521099999999997
H      54.732349999999997     43.496949999999984     44.055599999999991
H      51.636350000000000     42.334449999999997     51.751899999999999
H      53.048549999999999     49.282549999999986     47.703299999999999
H      55.173150000000000     47.803249999999991     44.027799999999999
H      54.671050000000001     48.158649999999994     42.420299999999997
H      52.481649999999995     49.230849999999997     44.069399999999995
H      53.858650000000004     50.403649999999985     43.326000000000001
H      55.801549999999999     50.523049999999984     45.290699999999994
H      55.454550000000005     48.888949999999987     46.220700000000001
H      52.276849999999996     50.415749999999989     46.376299999999993
H      51.697349999999993     50.645449999999997     44.804399999999994
H      52.942450000000001     51.630649999999989     45.717099999999995
H      53.836949999999995     40.744049999999987     50.207000000000001
H      54.285349999999994     41.990949999999984     49.648999999999994
H      54.386450000000004     41.067249999999994     48.327599999999997
H      50.484950000000005     42.489649999999990     48.383699999999997
H      50.969050000000003     41.490249999999989     49.801399999999994
H      51.662550000000003     40.956349999999993     48.125099999999996
H      51.303750000000001     48.513049999999993     51.368699999999997
H      52.012049999999995     49.407649999999990     49.880000000000003
H      47.992049999999999     37.628049999999995     47.340200000000003
H      55.452350000000003     39.457549999999991     44.751699999999992
H      55.416450000000005     39.250249999999994     46.232999999999997
H      51.927950000000003     36.547549999999994     43.771300000000004
H      47.040249999999993     36.161949999999990     44.204400000000000
H      50.572349999999993     35.936249999999994     42.140099999999997
H      48.332249999999995     35.083349999999996     42.555699999999995
H      53.447250000000004     37.414549999999991     48.075899999999997
H      53.615350000000007     39.020749999999992     48.199099999999994
H      51.744449999999993     40.998949999999994     43.967599999999997
H      53.134149999999998     40.181149999999995     44.296900000000001
H      51.121250000000003     37.010649999999984     47.593399999999995
H      53.569150000000000     36.921949999999995     45.565099999999994
H      49.658349999999999     38.193149999999996     48.248799999999996
H      50.382449999999999     41.024749999999997     46.916300000000000
O      45.464050000000000     45.137149999999991     49.693400000000004
O      47.460349999999998     39.406449999999992     44.850800000000000
O      53.584249999999997     55.852349999999994     43.690800000000003
O      50.449449999999999     50.590449999999990     53.378500000000003
O      54.320450000000001     42.062649999999991     45.696899999999992
