44

C      47.810799999999986     48.890599999999992     48.951250000000002
C      46.625000000000007     49.529800000000002     48.250550000000004
C      44.318199999999997     46.438499999999998     51.038249999999991
C      47.475900000000003     47.828600000000002     49.709750000000000
C      45.201799999999999     49.148199999999996     48.316350000000000
C      45.695799999999998     46.123500000000000     50.853449999999995
C      43.886000000000003     47.605100000000000     50.256749999999997
C      46.106900000000003     47.368100000000005     50.117050000000006
C      45.037699999999994     48.374500000000005     49.556849999999997
C      49.320000000000000     49.182399999999994     48.721249999999998
C      49.640099999999997     50.280499999999996     47.805850000000007
C      48.559800000000003     50.883699999999997     47.091949999999997
C      47.070600000000006     50.690800000000003     47.354550000000003
C      50.327400000000004     48.542399999999994     49.385050000000007
C      51.701199999999993     49.091199999999994     49.263649999999998
C      51.979899999999994     50.350500000000004     48.579650000000001
C      51.029400000000003     50.869899999999994     47.555050000000008
C      50.044199999999996     47.187599999999996     50.024150000000006
C      48.678099999999993     47.026200000000003     50.360550000000003
C      48.847199999999994     51.441200000000002     45.723950000000002
C      47.914099999999998     51.681900000000006     44.752549999999999
C      46.467499999999994     51.732999999999997     44.978350000000006
C      46.195500000000003     51.251200000000004     46.293549999999996
C      44.183200000000006     50.038699999999999     47.459649999999996
C      44.814600000000006     51.050999999999995     46.359650000000002
C      48.136400000000002     45.585900000000002     50.816350000000000
C      46.846499999999999     45.117199999999997     51.280050000000003
C      49.152899999999995     44.710200000000000     50.782550000000001
H      44.055900000000001     45.656399999999998     51.761949999999999
H      42.927799999999998     47.981500000000004     50.476050000000001
H      52.537200000000006     48.510100000000001     49.928749999999994
H      53.072200000000002     50.771099999999997     48.682550000000006
H      51.303400000000003     51.648599999999995     46.869450000000001
H      51.022699999999993     46.761299999999999     50.446750000000009
H      49.995799999999996     51.289899999999996     45.590249999999997
H      48.084099999999999     51.968200000000003     43.673249999999996
H      45.703300000000006     51.781299999999995     44.136550000000000
H      43.498500000000000     50.627699999999997     48.024050000000003
H      44.232899999999994     52.017699999999998     46.590750000000000
H      43.183500000000002     49.758800000000001     47.107749999999996
H      44.375800000000005     50.639199999999995     45.416350000000008
H      46.835699999999996     45.004199999999997     52.326750000000004
H      46.654299999999999     44.094999999999999     51.002449999999996
O      50.133699999999997     43.982300000000002     50.841049999999996
