20

C      49.986849999999997     46.799049999999994     47.110149999999990
C      51.137850000000000     46.432549999999999     46.322549999999993
C      49.584950000000006     47.884650000000001     48.086349999999996
C      48.310850000000002     49.643549999999998     49.437650000000005
C      48.332250000000002     48.223450000000007     48.745249999999999
C      47.379350000000002     49.156650000000006     48.244950000000003
C      47.753250000000001     47.169649999999997     49.417149999999992
C      45.904049999999998     48.853749999999998     48.249349999999993
C      46.435749999999999     47.096849999999996     49.631950000000003
C      45.278550000000003     47.951450000000001     49.032250000000005
H      49.110450000000000     46.362550000000006     46.739750000000001
H      51.086750000000009     45.699850000000005     45.564949999999996
H      51.835650000000001     47.234850000000002     46.084750000000000
H      50.181850000000011     48.678750000000001     48.204449999999994
H      47.730950000000007     50.023350000000001     50.392049999999998
H      49.152050000000003     50.300149999999995     49.038950000000000
H      48.340850000000003     46.228450000000002     49.726349999999996
H      45.234450000000002     49.442249999999994     47.644350000000003
H      46.181550000000001     46.505150000000000     50.435050000000004
H      44.164349999999999     47.741049999999994     48.915550000000010
