42

C      45.033199999999994     50.395949999999999     49.362649999999988
C      45.096400000000010     48.287549999999996     48.205650000000006
C      44.870300000000007     44.384950000000003     46.909750000000003
C      45.100000000000001     46.672349999999994     48.254850000000005
C      45.462800000000009     49.037649999999999     49.346450000000004
C      45.277200000000001     45.772250000000000     47.142449999999997
C      46.231400000000001     45.827749999999995     48.441350000000000
C      45.027600000000000     51.659049999999993     50.403450000000007
C      44.502000000000002     51.088849999999994     48.307249999999996
C      44.606600000000007     50.402449999999988     47.012150000000005
C      44.662799999999997     48.991050000000001     47.050849999999997
C      46.014200000000010     48.999049999999997     50.951050000000009
C      49.622999999999998     47.697649999999996     45.226450000000000
C      48.704900000000002     48.692750000000004     45.795950000000005
C      50.518500000000010     47.115049999999997     46.242350000000002
C      48.080000000000005     48.174850000000006     47.292550000000006
C      49.761699999999998     46.237650000000002     47.629750000000001
C      48.297600000000010     46.681849999999997     47.613050000000001
C      47.646099999999997     45.913749999999993     48.646749999999997
C      50.524800000000006     45.140150000000006     48.119450000000001
C      50.677799999999998     46.462450000000004     48.654349999999994
C      45.305000000000000     45.940150000000003     49.515649999999994
H      45.733000000000011     49.916849999999997     51.510649999999998
H      44.588300000000011     52.090549999999993     48.521450000000002
H      44.451900000000002     50.940549999999988     45.902050000000003
H      44.497100000000010     48.286150000000006     46.113249999999994
H      47.238500000000009     49.028250000000000     51.187250000000006
H      45.660800000000002     48.070750000000004     51.498050000000006
H      48.932400000000008     46.786349999999999     44.770550000000000
H      50.114600000000003     47.989750000000001     44.489350000000002
H      49.023299999999999     49.753349999999998     45.824749999999995
H      47.920400000000008     48.618250000000003     44.798950000000005
H      51.144100000000002     47.978449999999995     46.668850000000006
H      51.451300000000010     46.528949999999995     45.592550000000003
H      47.113999999999997     48.871549999999999     47.175049999999999
H      48.270900000000005     48.668949999999995     48.218850000000003
H      48.032299999999999     45.010350000000003     49.301850000000002
H      50.630800000000001     43.919749999999993     47.987549999999999
H      51.548099999999998     46.926649999999995     49.228049999999996
H      44.810499999999998     45.580050000000000     50.312950000000001
O      44.518200000000000     43.521150000000006     46.224750000000000
O      44.986200000000004     52.478849999999994     51.095749999999995
