22

C      49.056049999999999     49.346999999999994     46.749449999999996
C      50.358449999999998     48.612099999999991     47.313349999999993
C      48.185050000000004     50.137099999999997     48.006250000000001
C      50.258950000000006     48.145899999999990     48.795749999999998
C      47.758950000000006     48.714599999999997     48.569650000000003
C      48.751150000000003     47.858699999999992     49.065550000000002
C      46.303850000000004     48.303599999999996     48.668550000000003
C      48.528350000000003     46.457699999999996     49.373449999999998
C      46.027050000000003     47.118199999999995     49.188549999999999
C      47.119450000000001     46.189999999999991     49.421349999999997
H      49.605950000000000     49.995500000000000     46.044850000000004
H      48.503850000000000     48.707699999999996     46.241549999999997
H      51.271449999999994     48.956199999999988     46.910950000000007
H      50.656650000000006     47.717300000000002     46.762750000000004
H      47.540150000000004     50.747099999999996     47.560150000000000
H      49.023050000000005     50.766500000000001     48.530549999999998
H      50.536650000000002     49.142499999999991     49.401649999999997
H      51.196750000000002     47.855100000000000     49.112050000000004
H      45.424450000000000     48.928300000000000     48.515549999999998
H      49.403350000000003     45.571399999999990     49.317749999999997
H      44.728550000000006     46.964599999999997     49.321649999999998
H      46.641150000000003     45.233499999999999     49.955149999999996
