14

C      48.245399999999989     46.321049999999993     48.595799999999997
C      47.454099999999997     46.450350000000000     47.406800000000004
C      46.984999999999999     48.912450000000007     47.684300000000007
C      48.008600000000001     49.597949999999997     48.326300000000003
C      49.153000000000006     47.311149999999998     49.233700000000013
C      48.987600000000000     48.744349999999997     49.047200000000004
C      46.867099999999994     47.708650000000006     46.963000000000008
H      47.315399999999997     45.497450000000001     47.028500000000008
H      46.119699999999995     49.873050000000006     47.477000000000004
H      48.051100000000005     50.629850000000005     48.410600000000002
H      49.880300000000005     46.857450000000000     49.963600000000000
H      49.810100000000006     49.154150000000001     49.679400000000015
H      48.358800000000002     45.370149999999995     48.890500000000003
H      46.176000000000002     47.619950000000003     46.036400000000000
