22

C      48.165349999999997     48.465699999999984     50.454749999999990
C      47.585650000000001     49.229299999999995     49.370849999999997
C      48.711650000000006     47.110199999999992     50.282050000000005
C      46.387650000000001     48.445499999999996     48.437050000000006
C      48.261849999999995     46.616299999999995     48.784849999999999
C      47.087250000000004     47.128900000000002     47.961549999999995
C      49.464350000000003     46.143599999999992     47.905849999999994
C      46.745350000000002     47.035199999999989     46.455450000000006
C      49.256349999999998     46.269099999999995     46.488650000000000
C      47.990650000000002     46.702199999999991     45.786149999999999
H      48.799250000000001     49.218699999999998     50.911149999999999
H      47.474750000000000     48.021499999999989     51.305950000000003
H      48.338750000000005     49.462899999999991     48.604750000000003
H      47.565550000000002     50.308400000000006     49.463450000000002
H      49.808750000000003     46.783499999999989     50.487249999999996
H      47.998050000000006     46.632099999999994     50.985850000000006
H      46.113950000000003     49.082899999999995     47.611049999999999
H      45.661450000000002     48.556700000000006     49.036849999999994
H      50.338549999999998     45.816800000000001     48.351850000000006
H      45.737350000000006     47.419599999999988     46.111449999999998
H      49.827750000000002     45.691599999999994     45.685449999999996
H      47.668150000000004     46.978299999999990     44.694049999999997
