22

C      50.054349999999999     48.476199999999992     49.586099999999988
C      50.612349999999999     47.105899999999998     48.985300000000002
C      48.622449999999994     49.108699999999999     49.082400000000000
C      49.818549999999995     47.324300000000001     47.553400000000003
C      47.580949999999994     48.077900000000000     48.334099999999999
C      48.259350000000005     47.115099999999998     47.644500000000001
C      46.192950000000003     48.223300000000002     47.965399999999995
C      47.589050000000007     46.433399999999999     46.644600000000004
C      45.255350000000000     47.654299999999999     47.041300000000000
C      46.170050000000003     46.633699999999997     46.414300000000004
H      49.857949999999995     48.342999999999996     50.515099999999997
H      50.907850000000003     49.177500000000002     49.573200000000007
H      50.486749999999994     46.444299999999998     49.898900000000005
H      51.771149999999999     47.149999999999999     48.632799999999996
H      48.029850000000003     49.664600000000000     49.991700000000002
H      48.458750000000002     50.002400000000002     48.273400000000002
H      50.260950000000001     46.539499999999997     46.830000000000005
H      50.127950000000006     48.334200000000003     46.952900000000007
H      45.506650000000000     49.082900000000002     48.136299999999999
H      47.834949999999999     45.997599999999998     45.755900000000004
H      44.228850000000001     47.762499999999996     46.552699999999994
H      45.788750000000000     46.455900000000000     45.484900000000003
