22

C      47.717449999999992     49.038599999999995     50.400499999999994
C      48.356850000000009     50.096600000000009     49.514700000000005
C      48.335950000000004     47.610799999999998     49.994199999999992
C      48.269649999999999     50.010599999999997     48.014499999999998
C      48.074749999999995     47.402400000000000     48.425500000000000
C      48.224750000000000     48.471199999999996     47.511200000000002
C      48.011050000000004     45.984200000000001     47.932800000000000
C      48.029250000000005     48.278599999999997     46.030799999999999
C      48.415149999999997     45.807500000000005     46.543300000000002
C      48.052650000000000     46.919499999999999     45.648699999999991
H      48.032650000000004     49.268600000000006     51.535399999999996
H      46.607950000000002     49.045800000000000     50.471499999999992
H      47.988950000000003     51.101500000000001     49.926299999999998
H      49.302849999999999     50.393500000000003     49.960700000000003
H      47.960449999999994     46.645700000000005     50.564399999999992
H      49.392049999999998     47.962800000000001     50.136799999999994
H      49.207349999999991     50.606700000000004     47.646299999999997
H      47.424550000000004     50.650900000000000     47.561700000000002
H      47.766750000000002     45.212699999999998     48.668999999999997
H      47.798349999999999     49.068700000000000     45.343400000000003
H      48.505949999999999     44.898499999999999     45.723399999999998
H      47.838549999999998     46.939900000000002     44.464600000000004
