6

C      47.797349999999994     48.133549999999993     48.656349999999989
C      48.354150000000004     48.145349999999993     47.420849999999994
H      48.581450000000004     48.285650000000004     49.505249999999997
H      46.869350000000004     48.524450000000002     48.882150000000003
H      49.130649999999996     47.475549999999998     47.014550000000007
H      47.758150000000001     48.183449999999993     46.494750000000003
