22

C      48.565249999999992     50.548599999999993     48.858349999999987
C      47.731450000000002     50.428400000000003     47.490250000000003
C      49.574050000000000     49.213299999999997     48.921650000000000
C      47.078250000000004     49.091500000000003     47.080650000000006
C      48.674550000000004     48.004799999999996     48.832750000000004
C      47.356249999999996     48.021399999999993     48.218050000000005
C      49.117849999999997     46.840600000000002     49.343950000000007
C      46.532049999999998     46.808199999999992     48.261349999999993
C      48.412749999999996     45.496599999999994     49.245249999999999
C      47.156349999999996     45.504500000000000     48.472849999999994
H      47.788149999999995     50.492899999999999     49.641850000000005
H      49.139450000000004     51.399700000000003     48.847949999999997
H      48.266050000000000     50.750200000000000     46.656149999999997
H      46.959949999999999     51.158099999999997     47.794650000000004
H      50.381750000000004     49.223300000000002     48.204949999999997
H      50.229849999999992     49.196700000000000     49.821749999999994
H      47.547649999999997     49.056400000000004     45.934049999999999
H      46.053649999999998     49.079699999999995     46.968350000000001
H      50.103349999999999     47.025399999999998     50.065950000000001
H      45.618249999999996     46.993199999999995     47.445350000000005
H      48.934049999999992     44.701599999999992     49.700650000000010
H      46.842449999999999     44.600299999999997     47.897949999999994
