19

C      47.322099999999992     46.335679999999989     48.009099999999989
C      48.514000000000003     46.971079999999986     47.730199999999996
C      47.453000000000010     49.338379999999987     48.315200000000004
C      48.835400000000000     49.469949999999997     48.525800000000004
C      46.219400000000000     49.684830000000005     48.878500000000017
C      49.773600000000009     50.658699999999996     48.700400000000002
C      48.393799999999999     48.291350999999999     47.859200000000001
C      49.888100000000001     46.283279999999991     47.106000000000009
C      46.217800000000004     45.495079999999987     47.506500000000003
C      46.184000000000005     46.723079999999996     48.664400000000001
H      49.703399999999995     45.393079999999983     46.427000000000007
H      50.505800000000001     46.950079999999986     46.349199999999996
H      50.814000000000000     46.243879999999990     47.891599999999997
H      46.535699999999999     44.483279999999993     47.738000000000000
H      45.565600000000003     47.553579999999997     48.265900000000016
H      45.250200000000000     45.357779999999991     47.225000000000009
H      46.465699999999998     46.525579999999991     49.650800000000004
O      50.442999999999991     51.516720000000007     49.103100000000012
O      45.186000000000000     49.342019999999998     49.103499999999997
