22

C      45.667749999999991     48.540749999999989     47.980599999999995
C      46.427549999999997     47.035950000000000     47.789699999999996
C      46.920249999999996     49.527450000000002     48.505099999999999
C      48.388249999999999     48.183850000000007     46.878799999999998
C      48.303149999999988     48.628250000000008     48.478499999999997
C      47.897149999999996     47.244050000000001     48.020399999999995
C      49.415050000000008     48.883550000000014     49.265500000000003
C      48.981449999999995     46.254750000000001     48.293900000000008
C      50.501750000000001     47.969650000000001     49.177699999999987
C      50.335049999999995     46.666449999999998     48.492099999999994
H      44.517749999999999     48.602649999999997     48.350400000000008
H      45.250650000000000     48.733750000000001     46.965500000000006
H      46.469649999999994     46.988749999999996     46.658000000000001
H      46.170049999999989     45.956750000000000     48.002799999999993
H      46.998349999999988     49.627350000000007     49.553300000000007
H      46.985949999999995     50.644350000000003     48.498999999999995
H      47.762949999999996     48.785950000000014     46.319400000000002
H      48.957750000000004     47.867450000000005     46.218400000000003
H      49.558549999999997     49.813749999999999     49.781599999999997
H      49.117849999999997     45.355649999999997     47.609999999999999
H      51.482250000000001     48.292249999999996     49.632800000000003
H      51.359049999999996     46.038150000000002     48.333799999999997
