22

C      50.424149999999997     47.616899999999987     47.896249999999995
C      49.028050000000000     46.831199999999995     47.530950000000011
C      50.228050000000003     49.183599999999998     48.227850000000011
C      48.351950000000002     47.486899999999991     46.325750000000006
C      48.577449999999999     49.128699999999995     48.090550000000000
C      47.819550000000000     48.752399999999994     46.923549999999999
C      48.053150000000002     49.714500000000001     49.298950000000012
C      46.392050000000005     48.794899999999998     47.169050000000006
C      46.646650000000001     49.902500000000003     49.421250000000008
C      45.796650000000000     49.427799999999991     48.347450000000002
H      50.861550000000001     47.513300000000001     46.967450000000007
H      51.207850000000001     47.306399999999996     48.604950000000009
H      49.555650000000000     45.864899999999992     47.319750000000006
H      48.091950000000004     46.644700000000000     48.222150000000006
H      50.731650000000002     49.978799999999993     47.475349999999999
H      50.592350000000003     49.530000000000001     49.423350000000006
H      47.968950000000000     46.625399999999999     45.620449999999998
H      49.269449999999999     47.791600000000003     45.652250000000002
H      48.560850000000002     49.981600000000000     50.157950000000007
H      45.671950000000002     48.244799999999998     46.461250000000000
H      46.318249999999999     50.135100000000008     50.379550000000002
H      44.792149999999999     49.293999999999997     49.032650000000011
