22

C      47.851849999999999     48.404550000000000     45.345100000000002
C      48.989749999999994     49.099750000000007     46.128100000000011
C      47.045549999999999     47.447650000000003     46.388600000000004
C      48.754449999999999     49.130249999999997     47.593600000000016
C      47.364849999999997     47.412250000000007     47.938900000000011
C      48.674349999999997     47.796550000000003     48.474899999999998
C      46.916149999999995     46.590449999999997     48.956200000000017
C      49.017749999999999     47.659450000000000     49.904700000000005
C      47.295650000000002     46.131750000000004     50.266100000000016
C      48.578449999999997     46.671450000000000     50.834700000000012
H      48.293749999999996     48.057849999999995     44.427600000000005
H      47.307650000000002     49.264850000000003     45.145800000000008
H      49.320349999999998     50.388050000000000     45.699400000000004
H      49.925149999999995     48.463950000000004     45.960500000000003
H      46.938750000000006     46.370650000000005     45.783900000000010
H      45.998150000000003     47.666450000000005     46.501500000000007
H      49.504049999999999     49.639050000000005     48.265599999999999
H      47.933150000000005     49.812550000000009     47.806800000000003
H      45.934450000000005     46.059450000000005     48.942800000000005
H      50.065549999999995     47.838950000000004     50.119500000000009
H      46.532549999999993     45.611950000000000     50.733799999999995
H      49.118950000000005     46.062850000000005     51.572399999999995
