22

C      47.550249999999991     49.806399999999989     49.168849999999992
C      49.087449999999990     49.750300000000003     49.205249999999999
C      46.840549999999993     48.556899999999999     49.409550000000003
C      49.506850000000000     48.124800000000000     49.647550000000003
C      47.456949999999992     47.329599999999999     48.393850000000000
C      48.943150000000003     47.127099999999999     48.650250000000000
C      46.574849999999998     46.712499999999999     47.452950000000001
C      49.293049999999994     46.485500000000002     47.429650000000002
C      47.214749999999995     45.773399999999995     46.601450000000000
C      48.639049999999997     45.645499999999998     46.480150000000002
H      47.456449999999990     50.068300000000008     47.971250000000005
H      47.144649999999999     50.709400000000002     49.799150000000004
H      49.896349999999998     50.039800000000000     49.946950000000008
H      49.603049999999996     49.807600000000008     48.212550000000000
H      47.065449999999998     48.371299999999998     50.423749999999991
H      45.766649999999998     48.632800000000003     49.189649999999993
H      49.025649999999999     47.812200000000004     50.760649999999998
H      50.433549999999997     47.515799999999999     49.932049999999997
H      45.566450000000003     47.070000000000000     47.342950000000002
H      50.418849999999992     46.606300000000005     47.467950000000002
H      46.474350000000001     45.522700000000000     45.850349999999999
H      48.640949999999989     45.290599999999998     45.239350000000002
