6

C      47.972749999999991     48.913299999999992     47.164999999999992
H      48.693350000000009     46.698900000000002     49.236699999999992
H      47.506650000000008     47.116799999999998     48.035699999999999
O      49.052650000000000     49.301099999999998     46.741199999999999
O      46.947350000000000     48.380400000000002     47.541899999999998
O      47.563950000000006     46.729900000000001     49.258800000000001
