22

C      46.520599999999995     50.109649999999988     47.092549999999996
C      48.024699999999996     50.601549999999996     47.458749999999995
C      46.574699999999993     48.585349999999998     46.887750000000004
C      49.105699999999999     49.633049999999997     47.559850000000012
C      47.136700000000005     47.876749999999994     48.011450000000004
C      48.623800000000003     48.309049999999999     48.225449999999995
C      49.396799999999999     47.381849999999993     48.864850000000004
C      48.918199999999999     46.083149999999996     49.328850000000003
C      46.579700000000003     46.669849999999997     48.558950000000010
C      47.457700000000003     45.822349999999993     49.221550000000008
H      50.447199999999995     47.420349999999999     48.838149999999999
H      46.292800000000000     50.341349999999998     45.905450000000002
H      45.858199999999997     50.660649999999997     47.646249999999995
H      48.449600000000004     51.209749999999993     46.749650000000003
H      48.069199999999995     51.258950000000006     48.374150000000000
H      47.194900000000004     48.121649999999995     46.015550000000005
H      45.603399999999993     48.148049999999998     46.847250000000003
H      49.801800000000000     49.882149999999996     46.480150000000002
H      49.881500000000003     50.081749999999992     48.198449999999994
H      49.418999999999997     45.346949999999993     50.094549999999998
H      45.552800000000005     46.177849999999999     48.291850000000011
H      47.188299999999998     44.741049999999994     49.451949999999997
