39

C      45.096599999999995     46.964599999999997     49.913499999999999
C      47.941099999999992     47.103700000000003     50.097899999999996
C      47.369299999999996     47.315299999999993     48.626100000000008
C      46.566599999999994     46.516599999999997     49.514499999999998
C      48.412199999999999     46.745599999999996     47.713600000000000
C      46.635999999999996     45.069199999999995     49.380200000000002
C      48.687100000000001     45.362600000000000     47.793900000000008
C      47.744299999999996     44.593699999999998     48.587199999999996
C      46.335499999999996     51.241799999999998     45.960499999999996
C      45.755300000000005     50.326300000000003     46.958799999999997
C      47.855999999999995     51.377700000000004     46.223100000000002
C      46.192999999999998     48.759799999999998     47.029100000000000
C      48.988900000000001     50.803200000000004     47.269900000000007
C      48.748099999999994     49.615799999999993     48.053200000000004
C      50.243300000000005     51.388099999999994     47.508200000000002
C      47.312500000000000     48.818100000000001     48.343400000000003
C      50.757899999999992     50.746899999999997     48.821700000000007
C      49.818399999999997     49.567300000000003     49.087600000000009
H      44.837699999999998     47.957700000000003     49.527500000000003
H      45.273399999999995     47.244699999999995     50.924499999999995
H      47.645499999999998     47.703699999999998     51.075999999999993
H      48.661999999999992     46.119299999999996     50.198899999999995
H      48.980099999999993     47.473399999999998     47.061499999999995
H      45.821699999999993     44.497699999999995     49.791200000000003
H      49.637900000000002     44.676500000000004     47.512400000000000
H      47.978999999999999     43.426900000000003     48.657100000000000
H      45.683300000000003     52.027699999999996     46.450600000000009
H      45.930199999999999     50.915400000000005     44.924000000000007
H      45.511899999999997     50.754700000000000     47.901100000000000
H      44.809799999999996     49.866200000000006     46.663800000000009
H      48.062100000000001     52.573099999999997     46.104900000000001
H      48.448699999999988     51.612300000000005     45.255200000000002
H      45.379599999999996     48.164299999999997     47.489300000000000
H      46.763999999999996     48.300100000000000     46.094099999999997
H      50.866699999999994     51.888700000000000     46.725099999999998
H      47.011300000000006     49.499099999999999     49.153300000000002
H      51.589799999999997     51.158599999999993     49.495100000000008
H      49.923299999999998     48.999300000000005     49.966499999999996
H      44.410200000000003     46.078900000000004     49.747900000000001
