22

C      50.095250000000000     48.196084999999997     49.097749999999991
C      49.732150000000004     49.314699999999988     47.951950000000004
C      49.455650000000006     46.889649999999975     48.578550000000000
C      47.430050000000008     49.838859999999997     48.578650000000003
C      48.124250000000004     47.371350000000007     48.194049999999997
C      48.179150000000007     48.800043000000002     47.755649999999996
C      46.793450000000007     46.636750000000006     48.063750000000006
C      47.190850000000005     49.461460000000002     46.817249999999994
C      45.758250000000004     47.242049999999992     47.172350000000002
C      45.957250000000002     48.530861999999985     46.595549999999996
H      49.647750000000002     48.483621999999997     50.116350000000004
H      51.193449999999999     48.255822999999992     49.282850000000003
H      50.334550000000007     49.313289999999995     47.079850000000000
H      50.129450000000006     50.318849999999998     48.279950000000007
H      50.281150000000011     46.226650000000006     48.223750000000003
H      49.139050000000005     45.960049999999981     49.282850000000003
H      48.203750000000007     49.862520000000004     49.331150000000001
H      46.651950000000006     49.282299999999992     48.904850000000003
H      46.663250000000005     45.681150000000002     48.455949999999994
H      47.808550000000004     49.968360000000004     45.974550000000001
H      44.806550000000001     46.751449999999991     46.834250000000004
H      45.219050000000010     48.868588000000003     45.883649999999996
