22

C      47.283599999999993     47.744349999999990     50.717099999999988
C      48.372799999999991     48.786349999999999     50.474299999999992
C      46.599699999999999     47.395249999999990     49.303000000000004
C      49.318800000000003     48.389249999999990     49.452899999999993
C      47.262299999999996     47.727249999999998     47.889900000000004
C      48.602399999999996     48.402949999999990     48.064799999999998
C      46.560699999999997     47.587149999999994     46.754799999999996
C      49.510799999999996     48.934849999999997     47.064699999999995
C      47.432699999999990     48.057350000000000     45.683399999999999
C      48.764100000000006     48.630549999999999     45.801600000000001
H      46.875299999999996     48.683250000000001     51.359800000000000
H      47.141300000000001     46.904749999999993     51.478100000000005
H      47.845500000000001     49.648049999999998     50.051899999999996
H      48.766600000000004     49.143249999999995     51.284600000000005
H      46.308900000000001     46.351950000000002     49.337399999999995
H      45.531500000000001     47.215350000000001     48.769299999999994
H      50.447499999999998     48.791950000000000     49.363499999999995
H      49.856499999999997     47.427049999999994     49.288999999999994
H      45.557899999999997     47.133650000000003     46.577499999999993
H      50.468499999999999     49.087049999999991     47.432799999999993
H      47.414300000000004     48.150949999999995     44.521899999999995
H      49.319499999999998     49.061949999999996     44.955400000000004
