22

C      49.199349999999988     48.261019999999988     50.538349999999987
C      49.583249999999992     48.384619999999991     48.942149999999998
C      47.614149999999995     48.196619999999989     50.245949999999993
C      48.660849999999996     49.425043000000009     48.126649999999998
C      47.153250000000000     47.834619999999994     48.780949999999997
C      47.510149999999996     48.679319999999997     47.655649999999994
C      46.285150000000002     46.754320000000000     48.296549999999996
C      46.865650000000002     48.853119999999997     46.302149999999997
C      45.899850000000001     46.717219999999990     46.842049999999993
C      45.984349999999992     47.753919999999987     45.782149999999994
H      49.807950000000005     47.385019999999990     50.740849999999995
H      48.855049999999991     49.057926999999999     51.188050000000004
H      49.581050000000005     47.442019999999992     48.630149999999993
H      50.514849999999996     48.743919999999996     48.763549999999995
H      47.388149999999996     47.369819999999997     50.775250000000000
H      47.059849999999997     49.181043000000010     50.637949999999996
H      48.251649999999998     50.286780000000000     48.688449999999996
H      49.392749999999992     49.885007999999992     47.438749999999999
H      46.154849999999996     45.713220000000000     48.771049999999995
H      47.262150000000005     49.646763000000000     45.527149999999992
H      45.485150000000004     45.792119999999990     46.642550000000000
H      45.901250000000005     47.236819999999987     44.811949999999996
