22

C      47.057199999999987     47.545829999999995     50.536199999999994
C      47.371800000000007     48.862940000000002     50.390599999999999
C      46.436000000000000     46.920909999999999     48.875099999999996
C      48.555499999999995     49.155139999999996     49.486800000000002
C      47.623100000000001     47.374530000000000     47.958000000000006
C      48.759699999999995     48.300739999999998     48.139299999999999
C      47.844799999999992     46.806599999999996     46.572899999999997
C      49.607100000000003     48.919939999999997     47.134300000000003
C      48.749899999999997     47.071829999999999     45.615200000000002
C      49.594399999999993     48.262340000000002     45.837100000000000
H      47.915000000000006     46.895849999999996     50.750400000000006
H      46.098399999999998     47.226259999999996     50.929600000000001
H      47.744799999999998     49.381340000000002     51.292700000000004
H      46.541899999999998     49.437440000000002     49.987100000000005
H      45.550799999999995     47.293349999999997     48.275399999999998
H      46.021599999999999     45.866959999999999     48.755200000000002
H      49.479500000000002     48.822339999999997     49.988099999999996
H      48.961799999999997     50.133040000000001     49.509599999999999
H      47.263700000000000     46.004059999999996     45.879799999999996
H      50.274699999999996     49.796639999999989     47.248200000000004
H      48.777799999999999     46.409450000000000     44.707299999999996
H      50.449200000000005     48.538339999999998     45.068000000000005
