22

C      47.409599999999998     47.219954999999999     45.558449999999986
C      48.645600000000002     48.111134999999990     45.682249999999996
C      46.504400000000004     48.104034999999996     46.689449999999994
C      49.449399999999997     47.625584999999987     46.824649999999991
C      47.317300000000003     48.602284999999995     47.906249999999986
C      48.714200000000005     48.201044999999993     48.115949999999991
C      46.632700000000000     48.992585000000005     49.097650000000002
C      49.436899999999994     48.663334999999989     49.242149999999995
C      47.255499999999998     49.469684999999998     50.335650000000001
C      48.731600000000000     49.329684999999998     50.393049999999995
H      45.769700000000000     48.857344999999995     46.346850000000003
H      46.874700000000004     46.809844999999996     44.650949999999995
H      47.331199999999995     46.388715000000005     46.346349999999994
H      49.335800000000006     47.891024999999999     44.853249999999996
H      48.293599999999998     49.119585000000001     45.823049999999995
H      45.882499999999993     47.120414999999994     47.224749999999993
H      49.685499999999990     46.565264999999997     46.681449999999991
H      50.507800000000003     47.925264999999996     46.771449999999994
H      45.492199999999997     49.109484999999992     49.173549999999992
H      50.482699999999994     48.185684999999992     49.357149999999990
H      46.755899999999997     49.569984999999988     51.349050000000005
H      49.241099999999989     49.611284999999995     51.280249999999988
