8

C      47.258699999999997     47.568599999999989     48.010399999999983
C      48.673300000000005     48.455199999999998     48.010800000000003
H      47.457899999999995     46.607599999999998     47.565399999999997
H      46.619799999999998     48.276599999999995     47.422499999999999
H      46.619900000000001     47.416899999999991     48.986300000000000
H      49.380200000000002     48.076199999999993     48.731999999999999
H      48.295500000000004     49.392400000000002     47.820700000000002
H      48.992500000000007     48.395499999999991     47.013700000000000
