22

C      50.344499999999996     48.233749999999993     46.652699999999996
C      49.572500000000005     49.372550000000004     46.313800000000008
C      49.830900000000000     47.748950000000001     47.927700000000009
C      47.864800000000002     49.381850000000000     46.542700000000004
C      48.320099999999996     47.177850000000007     48.204400000000000
C      47.539199999999994     48.052750000000003     47.402100000000004
C      47.789900000000003     46.326650000000001     49.261000000000003
C      46.046700000000001     48.354650000000007     47.648800000000008
C      46.449299999999994     46.896650000000001     49.667099999999998
C      45.564800000000005     47.815750000000001     48.892800000000001
H      51.474000000000004     48.370450000000005     46.604000000000006
H      50.049199999999999     47.132850000000005     46.137900000000002
H      49.964600000000004     49.708550000000002     45.318400000000004
H      49.783699999999996     50.288550000000001     46.967100000000009
H      50.415899999999993     46.982450000000000     47.846200000000003
H      50.093299999999999     48.466250000000002     48.741300000000003
H      47.004999999999995     49.448949999999996     45.858200000000004
H      47.568699999999993     50.255549999999999     47.127000000000002
H      48.458399999999997     45.711449999999999     49.813700000000004
H      45.462400000000002     49.010649999999998     47.110000000000007
H      45.921199999999999     46.634950000000003     50.681599999999996
H      44.525999999999996     47.789450000000002     49.278100000000002
