19

C      47.592050000000000     47.358199999999982     50.272799999999997
C      45.791950000000000     47.385199999999990     47.442000000000000
C      48.430149999999998     46.820299999999996     48.940700000000000
C      46.380350000000007     48.485099999999996     48.013500000000001
C      47.649249999999995     48.123299999999993     49.037700000000001
C      48.963350000000005     48.060299999999991     48.217700000000001
C      50.017150000000001     47.061799999999998     48.250999999999998
C      48.699849999999998     48.752699999999997     46.966200000000001
C      50.223650000000006     46.959099999999999     46.610399999999998
C      49.406149999999997     47.995399999999997     45.944700000000005
H      47.919049999999999     48.027299999999990     51.047100000000000
H      46.503150000000005     47.321399999999990     50.607500000000002
H      45.050250000000005     47.457199999999993     46.663200000000003
H      46.388150000000010     46.316299999999991     47.422800000000002
H      46.243250000000003     49.569399999999995     47.908000000000001
H      50.949749999999995     47.337899999999998     48.876400000000004
H      48.143249999999995     49.783200000000001     47.029600000000002
H      50.862650000000002     46.216799999999999     46.220600000000005
H      49.305549999999997     48.010099999999987     44.952900000000000
