109

C      49.932049999999990     50.241309999999991     48.280549999999998
C      46.760750000000002     54.456999999999994     46.514450000000004
C      46.477150000000002     53.755499999999998     45.173550000000006
C      44.037250000000000     50.980559999999997     41.942250000000001
C      45.212350000000001     50.081479999999999     42.414550000000006
C      45.623449999999998     54.019700000000000     44.028350000000003
C      47.400449999999999     52.408999999999999     44.774150000000006
C      44.326749999999997     52.241100000000003     42.683850000000007
C      46.253950000000003     50.413779999999988     43.322050000000004
C      45.543250000000000     52.728200000000001     43.312150000000003
C      46.470950000000002     51.797129999999996     43.792850000000001
C      47.216149999999999     54.405299999999997     47.948050000000002
C      46.224049999999998     53.434799999999996     48.594850000000008
C      45.134149999999998     53.164299999999997     47.662250000000007
C      45.505150000000000     53.849899999999998     46.334650000000003
C      43.119950000000003     50.675829999999991     40.863450000000007
C      43.636350000000000     49.438139999999997     40.414050000000003
C      44.264249999999997     48.234699999999997     41.152750000000005
C      45.390549999999998     48.746399999999994     41.899250000000002
C      48.759650000000001     51.946809999999999     44.693850000000005
C      45.107050000000001     44.617999999999995     53.230050000000006
C      45.790250000000000     45.790839999999996     53.516549999999995
C      51.166249999999998     46.586359999999999     46.591650000000008
C      45.213450000000002     42.334660299999996     48.019550000000002
C      51.405449999999995     47.169640000000001     47.976350000000004
C      50.141849999999998     45.649479999999997     46.186050000000002
C      46.332250000000002     42.788823000000001     47.212750000000007
C      45.163649999999997     43.813240000000000     51.999949999999998
C      47.019050000000000     46.048359999999995     52.715750000000007
C      45.173250000000003     42.594664000000002     49.493150000000000
C      50.479050000000008     47.049880000000002     50.196050000000007
C      49.446350000000002     46.536169999999998     51.067250000000001
C      48.431849999999997     43.937539999999998     46.541650000000004
C      50.529150000000008     46.424050000000001     48.906950000000009
C      49.368850000000002     44.922739999999997     47.082350000000005
C      47.681849999999997     43.303199999999997     47.606050000000003
C      46.414149999999999     43.938109999999995     51.205350000000003
C      47.268650000000001     45.135279999999995     51.522850000000005
C      46.481250000000003     43.241959999999999     49.883449999999996
C      48.434950000000001     45.547349999999994     50.729950000000002
C      49.608950000000000     45.294419999999995     48.586550000000003
C      47.561950000000003     43.729119999999995     49.022650000000013
C      48.415950000000002     44.901969999999999     49.325250000000004
C      43.996749999999999     42.942225999999998     51.577050000000014
C      44.065449999999998     42.183400000000013     50.335850000000008
C      48.029449999999997     46.975059999999999     53.006550000000004
C      49.169049999999999     47.410179999999997     52.212250000000004
C      43.973149999999997     44.433160000000001     54.123450000000005
C      43.686450000000001     45.249099999999999     55.296050000000008
C      44.651649999999997     46.236590000000000     55.664950000000005
C      45.853050000000003     46.550480000000000     54.845050000000008
C      42.893450000000001     43.551519999999996     53.698450000000008
C      42.749949999999998     42.883513000000001     52.351150000000004
C      46.785350000000001     47.644909999999996     55.009350000000005
C      48.005249999999997     47.747380000000000     54.189350000000005
C      51.937249999999999     47.526409999999998     45.684150000000002
C      49.266950000000001     49.673429999999996     47.081650000000003
C      49.760950000000001     49.209080000000000     45.842150000000004
C      49.480249999999998     45.873570000000001     44.762450000000008
C      50.166850000000004     46.937640000000002     43.835450000000002
C      51.275550000000003     47.705430000000000     44.432650000000002
C      51.432949999999998     48.926870000000001     45.662050000000008
C      53.446149999999996     47.406689999999998     46.052450000000007
C      49.024949999999997     47.463400000000000     42.804550000000006
C      48.954050000000002     49.134369999999997     42.458050000000007
C      50.540450000000000     44.658459999999998     45.048050000000003
H      44.485650000000000     54.119099999999989     44.287150000000004
H      43.298349999999999     52.778499999999994     42.906650000000006
H      46.893050000000002     49.543070000000000     43.595450000000007
H      48.161250000000003     54.701200000000000     48.334950000000006
H      46.112150000000000     53.527699999999996     49.741750000000010
H      44.233150000000002     52.897199999999998     48.068050000000007
H      41.998350000000002     51.218509999999995     40.774450000000002
H      43.308950000000003     48.976019999999998     39.446150000000003
H      44.348649999999999     47.151690000000002     40.899650000000008
H      46.309049999999999     48.248999999999995     41.919850000000004
H      52.197450000000011     49.139919999999996     48.623450000000005
H      46.198149999999998     42.689575999999995     46.108650000000004
H      51.044950000000000     47.927900000000001     50.279750000000007
H      48.486049999999999     43.539999999999999     45.618550000000006
H      43.428049999999999     41.433700000000002     50.036950000000004
H      49.819749999999999     48.289780000000000     52.554850000000002
H      42.692149999999998     45.266509999999997     55.913150000000002
H      44.659950000000002     46.651799999999994     56.553849999999997
H      42.190249999999999     43.648109999999996     54.553750000000008
H      41.767449999999997     42.610785000000000     52.088050000000010
H      46.526850000000003     48.139730000000000     55.979450000000014
H      49.016649999999998     48.425249999999998     54.352350000000015
H      48.132150000000003     49.331440000000001     46.858750000000008
H      49.175750000000001     48.394750000000002     45.244950000000003
H      48.400750000000002     45.454389999999997     44.509250000000002
H      50.737349999999999     46.376500000000000     43.052550000000004
H      52.139450000000004     47.731690000000000     43.572050000000004
H      52.088050000000003     49.755609999999997     45.748450000000005
H      54.232550000000003     47.819099999999999     45.417050000000003
H      53.928049999999999     47.854250000000000     46.957750000000004
H      49.984150000000000     49.097890000000000     42.185850000000002
H      53.910450000000004     46.317670000000000     45.816950000000006
H      49.148750000000000     46.961369999999995     41.895450000000004
H      48.197350000000000     47.828739999999996     43.584850000000003
H      48.730950000000000     50.144269999999999     42.776050000000005
H      48.356250000000003     48.977179999999997     41.554350000000007
H      51.531149999999990     44.862189999999998     45.140850000000007
H      50.087849999999996     43.728690000000000     45.087550000000007
H      53.395150000000001     47.587910000000001     48.932750000000013
N      52.499949999999998     48.105499999999999     48.358550000000008
O      50.435150000000000     50.833849999999998     49.127150000000000
O      44.825450000000004     41.298800000000000     47.517550000000007
S      50.151249999999997     51.019610000000000     44.514350000000007
