22

C      45.404949999999992     47.646799999999992     48.283225999999992
C      45.861850000000004     46.768999999999998     47.018675999999999
C      46.177949999999996     49.146200000000000     48.060386000000001
C      47.466449999999995     46.774299999999997     46.809745999999997
C      47.725949999999997     49.147500000000001     48.093185999999996
C      48.243749999999999     48.112099999999998     47.159146000000000
C      48.468950000000007     49.648299999999999     49.209965999999994
C      49.699649999999991     48.186900000000001     46.868035999999996
C      49.841449999999995     49.452200000000005     49.065016000000000
C      50.473149999999997     48.879199999999997     47.842976000000000
H      44.310450000000003     47.542600000000000     48.255065999999999
H      45.788550000000001     47.321899999999999     49.159025999999997
H      45.330249999999999     46.764399999999995     46.043951000000000
H      45.740150000000000     45.848500000000001     47.635115999999996
H      45.880749999999999     50.151499999999999     48.480426000000001
H      45.908549999999991     49.461999999999996     47.005665999999998
H      47.891849999999998     45.912999999999997     47.330235999999999
H      47.632449999999999     46.542200000000001     45.930503999999999
H      47.827249999999992     50.095700000000008     50.100256000000002
H      50.045450000000002     47.596499999999999     45.899743999999998
H      50.574550000000002     49.989100000000008     49.700556000000006
H      51.689549999999997     49.228499999999997     47.786836000000001
