5

C      47.941004999999990     48.145499999999991     48.139699999999998
H      48.062895000000005     48.626900000000006     47.193500000000000
H      47.103484999999999     48.755300000000005     48.806500000000000
H      47.284784999999999     47.244699999999995     48.298400000000001
H      48.896515000000001     48.497999999999998     48.461399999999998
