5

C      48.012749999999997     48.120299999999993     47.803049999999992
H      48.540250000000000     48.887799999999999     47.558750000000003
H      48.632350000000002     47.112200000000001     47.533250000000002
H      47.367649999999998     47.795640000000006     47.069350000000000
H      47.736549999999994     48.101900000000001     48.930650000000000
