22

C      46.852999999999994     46.004899999999999     49.296799999999990
C      48.072299999999998     46.496000000000009     50.189400000000006
C      46.286999999999992     47.207200000000000     48.408400000000000
C      49.275499999999994     46.758700000000005     49.337600000000009
C      47.503799999999998     47.984400000000008     47.658500000000004
C      48.850699999999989     47.882000000000005     48.213999999999999
C      47.233999999999995     48.585500000000010     46.491700000000009
C      49.532899999999998     49.015900000000002     47.579599999999999
C      47.757199999999997     49.763600000000011     45.928200000000004
C      48.976999999999990     50.012200000000007     46.625000000000000
H      46.080199999999991     45.582000000000008     49.801500000000004
H      47.311499999999995     45.055700000000002     48.890299999999996
H      48.516899999999993     45.793100000000010     50.786900000000003
H      47.798000000000002     47.389700000000005     50.674600000000012
H      45.502200000000002     46.960700000000003     47.655699999999996
H      45.524599999999992     47.713400000000007     49.070999999999998
H      49.800399999999996     45.859300000000005     48.807100000000005
H      49.914800000000000     47.718600000000009     49.736300000000000
H      46.262599999999992     48.519900000000007     46.152500000000003
H      50.497799999999998     49.244000000000000     47.894999999999996
H      47.321399999999997     50.613900000000001     45.213099999999997
H      49.525699999999986     50.944299999999998     46.372500000000002
