22

C      49.815141999999994     48.137099999999990     49.642004999999997
C      49.896282000000006     46.723299999999995     48.730154999999996
C      48.276131999999997     48.817200000000000     49.385075000000001
C      49.735731999999999     47.492000000000004     47.158014999999992
C      47.543821999999999     48.818200000000004     48.132090000000005
C      48.390371999999999     48.141700000000000     46.993015000000014
C      48.185212000000000     49.522700000000000     46.956915000000009
C      47.436162000000003     47.311300000000003     46.202714999999998
C      46.130122000000000     48.153600000000012     47.891090000000005
C      46.253121999999998     47.057599999999994     46.897315000000020
H      50.402532000000001     48.978100000000012     49.167474999999996
H      49.808962000000001     48.068100000000001     50.744484999999997
H      49.119312000000001     45.827799999999996     48.989215000000002
H      50.847802000000001     46.359499999999997     48.473950000000002
H      48.164402000000003     49.710800000000006     50.133915000000002
H      47.785842000000002     48.160200000000003     49.964585000000000
H      49.531702000000003     46.742300000000000     46.420814999999990
H      50.573861999999998     47.977000000000004     47.170015000000006
H      47.906841999999997     50.172200000000004     46.140914999999993
H      47.723151999999999     46.614199999999997     45.255515000000003
H      45.152197999999999     48.490200000000002     48.309943000000004
H      45.565685999999999     46.207300000000004     46.849514999999982
