21

C      48.245984999999990     44.609599999999993     47.185249999999996
C      47.223884999999996     45.401399999999995     45.824750000000002
C      48.705984999999991     46.126999999999995     47.335950000000004
C      47.153385000000000     46.942700000000002     46.096250000000005
C      47.836784999999999     47.528799999999990     47.121150000000007
C      47.630485000000000     48.727499999999999     47.943850000000005
C      46.855285000000002     49.994399999999999     47.572949999999999
C      48.025884999999995     48.896999999999998     49.352850000000011
C      46.897385000000000     50.899099999999997     48.739449999999998
C      47.592784999999999     50.164600000000000     49.789350000000006
H      47.658484999999999     44.256799999999998     48.054250000000003
H      49.102884999999993     44.137299999999996     46.819450000000003
H      48.144584999999999     45.700299999999999     45.213750000000005
H      46.407975000000000     45.716200000000001     45.051650000000002
H      48.820985000000000     46.439999999999998     48.456750000000007
H      49.926285000000000     46.159400000000005     47.163650000000004
H      46.073715000000000     47.067300000000003     45.861650000000004
H      46.487414999999999     50.447199999999995     46.782550000000008
H      48.432884999999999     48.205200000000005     50.085950000000004
H      46.569184999999997     51.862700000000004     48.692550000000004
H      47.698084999999999     50.482499999999987     50.948349999999998
