22

C      50.065199999999990     48.661599999999993     46.320650000000001
C      50.764800000000001     48.102600000000002     47.534849999999999
C      48.555399999999999     49.020800000000001     46.745550000000001
C      49.991299999999995     47.326200000000000     48.625750000000004
C      47.659799999999997     48.309899999999999     47.915550000000003
C      48.525099999999995     47.597900000000003     48.838650000000008
C      46.234800000000000     48.101700000000001     47.696350000000002
C      47.730499999999999     46.809500000000000     49.759049999999995
C      45.395099999999992     47.357900000000001     48.735149999999997
C      46.259700000000002     46.911400000000000     49.817850000000000
H      49.892999999999994     47.902600000000000     45.608750000000008
H      50.876099999999994     49.038500000000006     45.592250000000000
H      51.432099999999998     48.870500000000000     47.981249999999996
H      51.484100000000005     47.317500000000003     47.089149999999997
H      48.085599999999999     49.470300000000002     45.837350000000008
H      48.228099999999998     50.068000000000005     47.248150000000003
H      50.353600000000000     47.197899999999997     49.731850000000001
H      50.082099999999990     46.297699999999999     48.380050000000004
H      45.524600000000000     48.469500000000004     46.864950000000000
H      48.206699999999998     45.931999999999995     50.350450000000002
H      44.515899999999995     46.971699999999998     48.395750000000000
H      45.526099999999992     46.431800000000003     50.407750000000000
