18

C      46.707994999999997     46.519739999999992     49.814749999999989
C      49.539385000000003     46.330539999999999     48.337849999999996
C      46.252935000000001     47.423040000000000     48.786049999999996
C      48.756734999999999     47.443140000000000     47.883049999999997
C      47.305285000000005     48.037239999999997     48.011449999999996
C      49.672775000000009     48.107339999999994     47.016050000000000
C      46.857445000000006     48.948639999999997     46.930549999999997
C      49.349655000000006     49.058140000000002     46.025449999999999
C      47.973424999999999     49.572339999999997     46.269449999999999
H      47.733305000000009     46.221339999999998     49.676849999999995
H      46.014344999999999     46.138040000000004     50.644950000000001
H      48.966955000000006     45.512259999999998     48.843449999999997
H      50.660284999999995     46.429240000000000     48.551449999999996
H      45.290624999999999     47.918440000000004     48.766050000000000
H      50.709375000000001     47.761839999999992     46.872349999999997
H      45.768355000000000     49.359740000000002     47.028549999999996
H      49.993015000000007     49.638539999999999     45.355049999999999
H      47.771805000000008     50.487740000000002     45.955949999999994
