6

C      47.584249999999990     47.949549999999988     48.480949999999993
C      48.345749999999995     47.682049999999997     47.442050000000002
H      47.636650000000003     48.483150000000002     49.462949999999999
H      46.491450000000000     47.694949999999999     48.282750000000000
H      47.795550000000006     47.516849999999998     46.537050000000001
H      49.508550000000000     48.171849999999999     47.359649999999995
