21

C      48.424799999999991     48.004749999999994     45.596949999999985
C      49.036200000000001     49.118549999999999     46.383449999999996
C      47.030999999999999     47.455650000000006     46.114549999999994
C      48.274300000000004     49.534850000000006     47.568950000000001
C      46.634900000000009     47.512550000000005     47.684950000000001
C      47.288900000000005     48.765749999999997     48.263649999999998
C      46.329200000000007     46.549650000000000     48.775049999999993
C      46.949700000000000     49.431049999999999     49.562550000000002
C      46.141300000000008     47.232749999999996     50.032749999999993
C      46.309000000000005     48.583150000000003     50.453149999999994
H      48.233600000000003     48.499549999999999     44.572350000000000
H      49.442000000000000     47.283950000000004     45.478650000000002
H      50.173600000000000     49.513649999999998     46.605450000000005
H      49.091299999999997     49.767250000000004     45.547449999999998
H      46.254799999999996     47.839750000000009     45.270449999999997
H      47.096100000000000     46.480649999999997     46.304349999999999
H      48.693000000000005     50.300550000000001     48.064849999999993
H      46.200499999999998     45.502250000000004     48.905550000000005
H      47.243500000000004     50.497749999999996     49.766449999999992
H      45.903300000000009     46.736249999999998     50.951949999999997
H      45.826400000000000     48.823750000000004     51.427650000000000
