22

C      46.982349999999990     50.078800000000001     48.469294999999995
C      48.167850000000001     50.287599999999998     49.539794999999998
C      47.206750000000000     49.119300000000010     47.232115000000000
C      49.349649999999997     49.684200000000004     48.424095000000001
C      49.195849999999993     48.063900000000004     46.639005000000004
C      48.487049999999996     48.667200000000008     47.686495000000001
C      49.629850000000005     46.641999999999996     46.477525000000000
C      48.049049999999994     47.549900000000008     48.723495000000000
C      49.098249999999993     45.707000000000008     47.415785000000000
C      48.550749999999994     46.277600000000007     48.715195000000001
H      45.967749999999995     49.929600000000008     48.932595000000006
H      46.991950000000003     51.086500000000001     47.892994999999999
H      47.887249999999995     50.111099999999993     50.516594999999995
H      48.698250000000002     51.325999999999993     49.367495000000005
H      49.356250000000003     48.769700000000000     45.829554999999999
H      46.758550000000000     49.047899999999998     46.158175000000000
H      49.930049999999994     48.871099999999998     48.775194999999997
H      49.677949999999996     50.263500000000008     47.744495000000001
H      50.032250000000005     46.258000000000010     45.483405000000005
H      47.669650000000004     47.931200000000004     49.583295000000007
H      49.339050000000000     44.674000000000007     47.253775000000005
H      48.220150000000004     45.703200000000010     49.520495000000004
