92

C      49.087199999999989     45.074674999999992     47.775349999999989
C      50.310699999999997     45.162715000000006     46.871049999999997
C      48.422599999999996     44.599055000000000     39.944549999999992
C      47.764899999999997     44.943265000000004     47.378449999999987
C      43.571699999999993     43.276025000000004     41.324649999999991
C      48.484299999999998     44.400095000000000     41.239549999999994
C      50.025599999999997     44.872225000000000     45.494349999999997
C      45.879700000000000     43.314855000000001     42.824749999999995
C      46.343699999999998     43.875395000000005     45.295749999999998
C      49.063199999999995     44.560235000000006     42.618650000000002
C      45.986499999999992     43.492815000000000     41.325249999999997
C      47.471999999999994     44.411495000000002     46.062449999999998
C      46.852899999999998     43.743195000000000     43.987150000000000
C      48.701699999999995     44.390264999999999     45.067949999999996
C      48.079400000000000     44.199945000000000     43.743049999999997
C      50.952900000000000     44.872885000000004     44.388249999999999
C      50.404999999999987     44.786385000000003     43.053449999999998
C      49.436000000000000     45.225615000000005     49.298849999999987
C      51.983799999999995     45.748605000000012     48.592149999999990
C      51.774299999999997     44.939005000000002     47.380549999999999
C      44.665799999999997     43.336105000000003     42.095950000000002
C      42.327399999999997     42.355395000000001     41.355850000000004
C      42.620300000000000     41.738804999999999     39.876549999999995
C      47.224599999999995     44.073975000000004     40.774249999999995
C      42.227599999999995     40.234375000000000     39.130749999999992
C      48.663999999999994     52.444365000000005     54.502949999999998
C      49.289199999999994     51.800565000000006     55.638649999999998
C      52.781900000000007     49.024664999999999     50.624649999999988
C      53.096799999999988     48.024965000000009     49.695449999999994
C      49.940399999999997     52.215365000000006     53.586649999999992
C      50.587100000000007     51.289865000000006     55.780749999999998
C      53.224199999999996     49.391165000000001     51.995949999999993
C      52.132000000000005     50.428364999999999     54.198249999999987
C      50.910799999999995     51.265365000000003     54.373649999999998
C      52.634999999999998     49.990364999999997     53.000049999999987
C      47.583900000000000     53.489564999999999     54.312849999999997
C      47.124299999999998     53.872065000000006     55.679949999999991
C      47.415900000000001     52.998665000000003     56.771349999999998
C      48.531599999999997     52.133465000000001     56.697149999999993
C      54.655799999999999     47.665145000000010     52.963449999999995
C      54.408499999999997     46.978365000000011     51.799349999999990
C      53.620199999999997     47.799565000000001     50.900149999999996
C      50.044799999999995     52.802764999999994     52.180349999999990
C      49.126500000000000     54.075265000000002     52.158949999999990
C      47.756999999999998     54.055365000000002     52.819649999999996
C      54.009999999999991     48.987264999999994     52.951949999999997
C      51.631699999999995     52.842664999999997     51.655049999999989
C      51.474899999999991     52.645765000000011     50.035550000000001
C      46.572800000000001     52.955564999999993     52.314149999999998
C      50.063699999999997     55.301765000000003     52.457949999999997
C      52.481699999999989     47.246295000000003     48.386649999999989
H      47.021699999999996     44.903735000000005     47.911949999999990
H      43.768999999999998     43.612135000000002     40.314049999999995
H      45.304899999999996     43.605055000000000     45.626249999999999
H      51.959900000000005     45.364965000000005     44.459249999999997
H      51.193299999999994     45.026795000000000     42.395949999999999
H      48.749800000000000     45.083804999999998     50.157950000000000
H      52.821500000000000     45.182005000000004     48.968849999999989
H      52.088899999999995     43.840545000000006     47.557350000000000
H      41.225499999999997     42.578915000000002     41.359449999999995
H      42.568799999999996     41.691405000000003     42.349350000000001
H      42.266799999999996     42.517095000000005     39.164149999999992
H      43.847399999999993     41.771225000000001     39.621250000000003
H      41.182599999999994     40.036525000000005     38.800049999999999
H      42.686199999999999     39.982635000000002     40.104249999999993
H      42.865799999999993     40.228725000000004     38.293350000000004
H      50.978499999999997     45.549845000000005     50.889749999999992
H      49.504700000000000     44.796315000000000     39.831649999999996
H      51.110499999999995     51.083665000000003     56.720649999999992
H      52.630099999999999     49.958965000000006     55.052149999999997
H      46.621899999999997     54.818465000000003     55.627649999999988
H      46.830599999999997     53.126165000000000     57.706649999999996
H      49.037699999999994     51.350665000000006     57.410950000000000
H      54.601399999999998     45.987745000000004     51.544849999999997
H      54.817400000000006     47.051345000000012     53.774949999999990
H      49.458599999999990     52.024865000000005     51.539949999999990
H      48.899600000000000     54.314165000000003     51.057449999999989
H      47.281099999999995     54.991365000000002     52.601749999999996
H      52.430699999999995     52.344364999999996     52.039049999999989
H      51.968099999999993     53.681465000000003     52.172449999999998
H      50.483100000000007     52.630565000000004     49.727649999999997
H      52.266999999999996     53.255665000000008     49.489750000000001
H      51.698799999999999     51.564965000000001     49.875149999999991
H      46.373300000000000     52.663865000000001     51.337649999999996
H      45.512900000000002     53.042665000000000     52.830349999999996
H      46.915099999999995     51.925364999999999     52.620849999999990
H      49.507199999999997     56.017364999999998     53.159549999999996
H      51.190600000000003     55.035965000000004     52.658149999999992
H      49.973599999999990     55.981364999999997     51.611449999999991
H      51.846099999999993     48.070965000000001     48.196949999999987
H      53.012299999999996     47.435355000000001     47.526449999999997
N      50.650299999999987     45.578964999999997     49.761649999999989
