22

C      48.027609999999996     50.822149999999993     49.316099999999992
C      49.335859999999997     50.508550000000000     48.787699999999994
C      48.885109999999997     49.248849999999997     49.462699999999991
C      46.626089999999991     47.463249999999995     48.949199999999998
C      48.886380000000003     48.320850000000000     47.270000000000003
C      48.107959999999991     48.179749999999999     48.614200000000004
C      49.194379999999995     47.188250000000004     46.456600000000002
C      48.097070000000002     46.790749999999996     48.767800000000001
C      48.677329999999998     45.903250000000000     46.717199999999998
C      48.118619999999993     45.553649999999998     47.940300000000001
H      47.831720000000004     51.391349999999996     50.124699999999997
H      47.024119999999996     50.654550000000000     48.962100000000000
H      49.902079999999998     51.429150000000000     48.796399999999998
H      49.205230000000000     50.741749999999996     47.521300000000004
H      49.343149999999994     49.130350000000000     50.317399999999999
H      49.194999999999993     49.345949999999995     46.957000000000001
H      46.097920000000002     47.006149999999998     48.020599999999995
H      46.364449999999991     47.694650000000003     49.815300000000001
H      49.831179999999989     47.418050000000001     45.682600000000001
H      48.507519999999985     46.371050000000004     49.708800000000004
H      48.900660000000002     45.163149999999995     46.097000000000001
H      47.654399999999995     44.570850000000000     47.936900000000001
