21

C      47.847149999999999     46.141014999999982     48.092499999999994
C      46.943649999999998     47.984875000000002     45.879199999999997
C      46.750049999999995     47.104574999999997     47.132900000000006
C      48.602550000000001     48.551985000000002     46.032399999999996
C      47.664850000000008     47.621555000000001     48.292200000000008
C      48.569350000000007     48.651094999999998     47.566100000000006
C      46.840750000000007     47.830365000000000     49.520899999999997
C      49.365450000000003     49.546144999999996     48.285300000000007
C      47.703350000000007     48.948265000000006     49.999700000000004
C      48.933650000000007     49.681844999999996     49.686199999999999
H      48.658650000000002     45.608674999999991     47.535100000000000
H      47.114650000000005     45.633904999999999     48.710400000000007
H      46.465150000000001     47.352024999999998     45.114300000000000
H      46.317950000000003     48.959535000000002     45.805000000000007
H      45.873849999999997     47.266194999999996     47.537099999999995
H      49.361449999999998     47.828494999999990     45.648499999999999
H      48.776550000000007     49.454075000000003     45.390799999999999
H      45.821649999999998     48.413084999999995     49.591300000000004
H      50.178350000000002     50.139364999999998     47.785800000000009
H      47.354949999999995     49.621254999999991     50.885700000000000
H      49.310549999999999     50.391325000000009     50.187399999999997
