77

C      46.619049999999994     49.688499999999991     47.036449999999988
C      46.403649999999999     49.231500000000004     45.671650000000000
C      49.073250000000002     45.294199999999996     46.691550000000007
C      47.695750000000004     49.038400000000003     47.876750000000001
C      47.048649999999995     47.951600000000006     45.393249999999995
C      49.458050000000000     47.516300000000008     48.517150000000001
C      48.314650000000000     47.886699999999998     47.517049999999998
C      48.032250000000005     47.254300000000008     46.123750000000001
C      45.597650000000002     50.506800000000005     47.639849999999996
C      44.602750000000000     50.712300000000006     45.523750000000007
C      44.457149999999999     50.949599999999997     47.010549999999995
C      45.371750000000006     49.804600000000001     44.729349999999997
C      47.802650000000000     50.034299999999995     49.194850000000002
C      46.650450000000006     50.402700000000003     50.037750000000003
C      45.305850000000007     50.424900000000001     49.295950000000005
C      46.442149999999998     47.225000000000001     44.092950000000002
C      45.951549999999997     48.012599999999999     42.930549999999997
C      45.284250000000000     49.292400000000008     43.282749999999993
C      49.812449999999998     45.833500000000008     47.933350000000004
C      51.344650000000001     49.248899999999999     49.917550000000006
C      51.204049999999995     49.563300000000005     48.459850000000003
C      51.008650000000003     48.126700000000007     48.013050000000007
C      46.239050000000006     50.295899999999996     42.459350000000001
C      50.574950000000001     50.839999999999996     47.933250000000001
C      45.864149999999995     50.668299999999995     40.915149999999997
C      52.029749999999993     50.146400000000007     47.506249999999994
C      46.842550000000003     45.863800000000005     55.226050000000001
C      48.338650000000001     47.051499999999997     50.948149999999998
C      47.146550000000005     46.365600000000008     53.625349999999997
C      48.224149999999995     47.488999999999997     53.596549999999993
C      48.777749999999997     47.860599999999998     52.397350000000003
C      49.641549999999995     47.176800000000007     49.941749999999999
C      49.561650000000000     48.089400000000005     53.556349999999995
C      50.439650000000000     48.161700000000003     50.684950000000001
C      49.989249999999998     48.750599999999999     52.241349999999997
H      43.552250000000001     51.211800000000004     45.255549999999999
H      48.613950000000003     49.727399999999996     49.988950000000003
H      48.130949999999999     51.024999999999999     48.529849999999996
H      46.879750000000001     51.327300000000001     50.657250000000005
H      46.487250000000003     49.749500000000005     50.804450000000003
H      44.468649999999997     49.688899999999997     49.307350000000000
H      44.729349999999997     51.361899999999999     49.526849999999996
H      46.894750000000002     46.393400000000007     43.818150000000003
H      45.671350000000004     46.461000000000006     44.431150000000002
H      45.198449999999994     47.486100000000000     42.187349999999995
H      46.782449999999997     47.998799999999996     42.141649999999998
H      44.307350000000000     49.298200000000001     42.848749999999995
H      49.597250000000003     44.952500000000008     48.418949999999995
H      50.806449999999998     45.683500000000002     47.658550000000005
H      51.264550000000000     50.201500000000003     50.605050000000006
H      52.490650000000002     49.010899999999999     49.884349999999998
H      51.123649999999998     48.177799999999998     46.932150000000007
H      51.678749999999994     47.676700000000004     48.792749999999998
H      46.002449999999996     51.098900000000008     43.192849999999993
H      47.321749999999994     50.002000000000002     42.443349999999995
H      50.625050000000002     51.545300000000005     48.589849999999998
H      50.441350000000000     50.996299999999998     46.753649999999993
H      44.760949999999994     50.743800000000000     41.072249999999997
H      46.505849999999995     51.263399999999997     40.260949999999994
H      51.755049999999997     49.859400000000001     46.454250000000002
H      49.157650000000004     44.332299999999996     46.520849999999996
H      52.934250000000006     50.631400000000006     47.616749999999996
H      43.202349999999996     51.667700000000004     48.418949999999995
H      47.155749999999998     46.974600000000002     55.331649999999996
H      45.991150000000005     45.216699999999996     55.739050000000006
H      47.687650000000005     45.427699999999994     55.579350000000005
H      47.661249999999995     47.605899999999998     50.361649999999997
H      47.956549999999993     46.058200000000006     51.074349999999995
H      46.066850000000002     46.937000000000005     53.743949999999998
H      46.860550000000003     45.809100000000008     52.688850000000002
H      50.040049999999994     46.184800000000003     50.345650000000006
H      49.732450000000000     49.004899999999999     54.246250000000003
H      51.105149999999995     47.160800000000002     50.982650000000007
H      49.729150000000004     49.761500000000005     52.104950000000002
H      45.624949999999998     49.727499999999999     40.441549999999992
N      48.387349999999998     46.015599999999999     45.743150000000000
O      43.065749999999994     50.985099999999996     47.693749999999994
