22

C      49.860699999999994     48.001249999999999     49.793349999999990
C      48.856099999999991     47.116450000000000     50.321449999999999
C      49.513100000000001     48.968649999999997     48.512850000000000
C      47.380800000000001     47.518749999999997     49.942549999999997
C      48.347099999999990     48.203049999999990     47.758750000000006
C      47.331600000000002     47.237650000000002     48.365449999999996
C      48.182700000000004     48.097749999999991     46.316950000000006
C      46.259300000000003     46.573149999999998     47.814650000000000
C      47.040900000000001     47.502650000000003     45.656250000000000
C      46.002499999999991     46.855450000000005     46.395150000000001
H      50.173299999999990     48.686449999999994     50.614850000000004
H      50.747300000000003     47.478049999999996     49.471750000000000
H      48.917200000000001     46.148949999999999     49.888050000000007
H      48.939599999999992     46.682950000000005     51.387550000000005
H      50.406500000000001     49.323449999999994     47.819550000000007
H      49.004299999999994     49.851050000000001     48.662949999999995
H      46.585000000000001     46.740150000000000     50.492850000000004
H      47.340600000000002     48.607649999999992     50.167650000000009
H      49.136900000000004     48.473849999999999     45.776849999999996
H      45.252699999999997     46.348950000000002     48.466949999999997
H      46.780099999999997     47.602950000000007     44.612449999999995
H      45.254399999999997     46.576650000000001     45.884550000000004
