22

C      49.893499999999989     49.519449999999992     47.501649999999998
C      50.640600000000006     48.173350000000006     47.127449999999996
C      49.388499999999993     48.982350000000004     48.923050000000003
C      49.856700000000004     46.916950000000007     47.019850000000005
C      48.031300000000002     48.129449999999999     48.646950000000004
C      48.332200000000000     47.189249999999994     47.658349999999999
C      46.632099999999994     48.446850000000005     49.212249999999997
C      47.315899999999999     46.430749999999996     47.105850000000004
C      45.651499999999999     47.517950000000006     48.449749999999995
C      45.867800000000003     46.514649999999996     47.485950000000003
H      49.038399999999996     49.745550000000001     46.957549999999998
H      50.597200000000001     50.279850000000003     47.645150000000001
H      51.549000000000007     48.112550000000006     47.765749999999997
H      50.978999999999999     48.423849999999995     46.082149999999999
H      50.254400000000004     48.355550000000001     49.317749999999990
H      49.203999999999994     49.987349999999999     49.628950000000003
H      49.810000000000002     45.720149999999997     47.118349999999992
H      49.923100000000005     47.034349999999996     45.842550000000003
H      46.223399999999998     48.764150000000008     50.157449999999997
H      47.683099999999996     45.849950000000000     46.215249999999997
H      44.450999999999993     47.535649999999997     48.893050000000002
H      45.165300000000002     46.078049999999998     46.851649999999992
