22

C      45.950099999999985     48.205700000000000     49.468099999999993
C      45.274299999999997     48.156500000000001     47.783299999999997
C      47.241000000000000     49.078400000000002     49.349100000000000
C      46.376599999999996     47.451000000000008     46.998600000000003
C      48.331699999999998     48.631500000000003     48.189900000000002
C      47.748300000000000     47.649200000000008     47.240400000000001
C      49.740700000000004     48.402900000000002     48.323100000000004
C      48.485199999999992     46.859400000000008     46.259300000000003
C      50.561999999999998     47.593500000000006     47.561799999999998
C      49.935100000000006     47.019500000000008     46.373400000000004
H      45.063699999999997     48.695900000000009     50.278200000000005
H      45.808899999999994     47.158600000000007     49.781900000000000
H      45.394700000000000     49.209300000000006     47.431600000000003
H      44.309600000000003     47.835500000000003     47.692700000000002
H      46.644899999999993     49.920199999999994     49.259500000000003
H      47.715599999999995     49.106800000000007     50.340100000000000
H      46.134799999999998     47.619700000000002     46.003500000000003
H      46.375399999999999     46.298100000000005     46.902999999999999
H      50.767899999999997     48.903400000000005     49.059800000000003
H      47.828199999999995     46.079800000000006     45.659900000000000
H      51.690399999999997     47.776200000000003     47.478900000000003
H      50.598200000000006     46.754500000000007     45.699800000000003
