22

C      46.615999999999993     48.060144999999999     50.325949999999992
C      47.541899999999998     49.326880000000003     50.228550000000006
C      47.469099999999997     46.969239999999985     49.362349999999999
C      47.897199999999998     49.616210000000009     48.631750000000004
C      48.171599999999998     47.429391900000006     48.019849999999998
C      48.519300000000001     48.655249999999995     47.694550000000000
C      48.350299999999997     46.452640000000017     46.817450000000001
C      49.329300000000003     48.653060000000011     46.427349999999997
C      49.000200000000000     46.568340000000020     45.525449999999999
C      49.709899999999990     47.668999000000007     45.381250000000001
H      45.646799999999999     48.392610000000005     49.774850000000001
H      46.608699999999999     47.657366000000003     51.465949999999999
H      47.116999999999990     50.290600000000005     50.753250000000001
H      48.343799999999995     49.713170000000005     50.875250000000001
H      46.741600000000005     46.183140000000023     49.235849999999999
H      48.201299999999996     46.443840000000002     49.947049999999997
H      48.390400000000000     50.574260000000010     48.647050000000000
H      46.798899999999996     49.571460000000002     48.274450000000002
H      47.755800000000001     45.425739999999990     46.881050000000002
H      49.619999999999990     49.624540000000003     46.566250000000004
H      49.219000000000008     45.694440000000021     44.853349999999999
H      50.353200000000001     47.822239000000003     44.534050000000001
