21

C      46.742774999999995     47.179149999999993     48.607149999999997
C      48.167475000000003     47.088450000000009     50.564650000000000
C      47.329874999999994     46.358850000000004     49.490450000000010
C      49.389575000000001     47.876250000000013     49.766649999999998
C      47.478375000000007     48.206550000000007     47.827750000000009
C      48.765974999999997     48.475650000000002     48.541750000000008
C      49.272275000000000     49.578350000000000     47.692950000000003
C      46.760475000000007     48.639450000000011     46.642150000000001
C      48.843775000000001     49.780150000000006     46.340450000000004
C      47.803275000000006     49.174650000000014     45.698150000000005
H      47.871074999999998     45.505549999999999     48.933850000000007
H      45.640825000000000     47.224150000000009     48.147150000000003
H      47.687075000000000     46.283950000000004     51.121949999999998
H      47.477574999999995     47.627850000000009     51.279949999999999
H      46.603675000000003     45.643450000000001     50.048050000000003
H      50.230974999999994     47.068450000000013     49.520650000000003
H      49.825474999999997     48.693950000000001     50.388450000000006
H      50.359175000000000     50.100450000000009     47.771550000000005
H      45.744165000000002     48.616450000000000     46.275750000000002
H      49.493474999999997     50.494450000000001     45.738550000000004
H      47.680574999999997     49.395450000000011     44.720050000000001
