22

C      48.739049999999992     47.802949999999996     50.713149999999992
C      49.703049999999998     48.716049999999996     49.728949999999998
C      47.336450000000006     47.215950000000007     49.897149999999996
C      48.509350000000005     49.395449999999997     48.786049999999996
C      47.249249999999996     47.286550000000005     48.320349999999998
C      48.313750000000006     48.138349999999988     47.797750000000001
C      46.500850000000007     46.290049999999994     47.651449999999997
C      48.500750000000004     48.038149999999987     46.428849999999997
C      46.609450000000002     46.237049999999996     46.108249999999998
C      47.529450000000004     47.230249999999998     45.647950000000002
H      48.204450000000001     48.567949999999996     51.385850000000005
H      49.408949999999997     46.929550000000006     51.216450000000009
H      50.210450000000002     48.121049999999997     48.874549999999999
H      50.248749999999994     49.308049999999994     50.301150000000000
H      46.483749999999993     47.860649999999993     50.284149999999997
H      47.164750000000005     46.329750000000004     50.350450000000002
H      48.841950000000004     50.362449999999995     48.206949999999999
H      47.575049999999997     49.462649999999996     49.296450000000000
H      45.804150000000000     45.637550000000005     48.342449999999999
H      49.083149999999996     48.821549999999988     45.692850000000000
H      45.751250000000006     45.792850000000001     45.534849999999999
H      47.152149999999999     47.222949999999997     44.614149999999995
