23

C      46.369949999999996     48.703199999999988     46.962879999999998
C      45.903450000000007     47.218999999999994     47.693719999999999
C      48.986350000000002     47.027799999999999     46.281009999999995
C      47.217050000000000     46.188099999999991     47.757589999999993
C      47.840250000000012     48.615799999999993     47.770759999999996
C      48.300850000000011     47.234200000000001     47.736149999999995
C      48.529150000000001     49.536400000000000     48.529499999999999
C      49.387250000000009     46.812500000000000     48.541209999999992
C      49.618250000000003     49.006900000000002     49.460149999999999
C      50.313250000000011     47.757099999999994     49.213319999999996
H      49.427950000000010     45.996600000000001     46.070869999999999
H      46.110150000000004     48.430099999999996     45.948999999999998
H      45.795350000000013     49.488699999999994     47.381409999999988
H      45.814150000000012     47.625399999999999     48.720820000000003
H      44.833050000000000     46.915499999999994     47.530370000000005
H      48.153450000000007     47.287199999999999     45.602199999999996
H      49.583650000000006     48.027099999999990     45.934370000000001
H      46.951550000000012     45.435800000000000     46.874589999999998
H      47.290150000000011     45.448399999999992     48.664169999999999
H      48.182050000000004     50.564200000000000     48.611379999999997
H      49.824350000000010     45.673499999999990     48.747280000000003
H      49.965150000000008     49.541899999999998     50.397800000000004
H      51.166950000000000     47.515999999999991     49.442119999999989
