22

C      47.899749999999997     49.850999999999999     46.488949999999988
C      48.749250000000004     48.955500000000001     45.457749999999997
C      46.961849999999998     49.105600000000003     47.631850000000007
C      48.903149999999997     47.509900000000002     45.913550000000001
C      47.913049999999998     48.078800000000001     48.324249999999999
C      48.799650000000000     47.283800000000006     47.439150000000005
C      47.582350000000005     48.107300000000002     49.737349999999999
C      49.299450000000007     46.142600000000002     48.152149999999999
C      48.163349999999994     46.998100000000001     50.421649999999993
C      49.054349999999999     46.103700000000003     49.583049999999993
H      48.620249999999999     50.312400000000004     46.992549999999987
H      47.263050000000007     50.704400000000000     45.958149999999996
H      48.178150000000002     49.166200000000003     44.462949999999999
H      49.753950000000003     49.309100000000001     45.303649999999998
H      46.514550000000000     49.508500000000005     48.608750000000001
H      45.970750000000010     48.730100000000000     47.149549999999998
H      49.809150000000002     46.963500000000003     45.420150000000000
H      48.050449999999998     47.176700000000004     45.330549999999995
H      46.874049999999997     49.005900000000004     50.126649999999998
H      50.029249999999990     45.440200000000004     47.742349999999995
H      48.181950000000001     46.960700000000003     51.537050000000001
H      49.291150000000002     45.295600000000000     50.258749999999999
