6

C      47.912899999999993     47.472399999999993     48.390099999999990
C      47.968899999999998     48.508400000000009     47.332800000000006
H      47.806199999999997     47.490600000000001     49.501300000000001
H      47.832299999999996     46.464600000000004     48.100900000000010
H      48.193800000000003     47.780799999999999     46.498699999999999
H      47.843299999999999     49.535399999999996     47.734200000000001
