6

C      47.939399999999992     48.518799999999992     48.392699999999991
C      48.027800000000006     47.439199999999992     47.454700000000003
H      48.595599999999997     48.602299999999985     49.363599999999998
H      47.488499999999995     49.570400000000006     48.209400000000002
H      48.421199999999992     46.429599999999994     47.909700000000001
H      47.404400000000003     47.616099999999996     46.636400000000002
