22

C      46.440184499999987     49.050799999999995     46.492399999999989
C      47.613464500000006     48.389899999999990     45.767600000000002
C      46.625354500000000     49.386299999999999     48.041899999999998
C      48.935814500000006     48.917699999999989     46.432600000000008
C      47.833914500000006     48.470700000000001     48.696800000000010
C      48.967674500000001     48.206499999999998     47.911799999999999
C      47.215684500000009     47.945499999999988     49.918199999999999
C      49.711064500000006     47.211099999999995     48.597900000000010
C      48.073494499999995     46.886699999999998     50.346500000000006
C      49.383604500000004     46.571099999999994     49.801200000000009
H      46.011389500000007     50.082000000000001     46.176000000000002
H      45.557195500000006     48.484499999999990     46.126599999999996
H      47.422374500000004     47.238700000000001     45.884900000000002
H      47.452734500000005     48.875799999999991     44.792800000000000
H      47.153344500000003     50.269900000000000     48.146700000000010
H      45.719900499999994     49.714499999999994     48.995300000000000
H      48.972914500000002     50.153999999999989     46.984900000000010
H      49.551084500000002     49.214099999999995     45.548699999999997
H      46.265943500000006     48.180500000000002     50.267099999999999
H      50.442804499999994     46.778199999999991     48.085400000000007
H      47.665814499999996     46.327399999999990     51.207200000000000
H      49.823554500000000     45.730100000000000     50.107200000000006
