6

C      47.970849999999999     48.408450000000002     47.573999999999998
C      48.051150000000000     47.573750000000004     48.660699999999991
H      47.382950000000001     49.440349999999995     47.757899999999992
H      48.448749999999997     48.259450000000001     46.419300000000007
H      47.488550000000004     47.849350000000001     49.580699999999993
H      48.617049999999999     46.559650000000005     48.416399999999996
