22

C      49.712899999999998     47.293999999999990     49.732549999999996
C      50.233500000000006     47.707599999999999     48.185949999999998
C      48.269900000000000     46.388399999999997     49.670050000000003
C      49.219899999999996     48.910499999999999     47.872450000000001
C      47.508800000000001     47.454399999999993     48.717750000000002
C      47.835100000000004     48.500399999999999     47.857750000000003
C      46.445100000000004     46.674499999999995     48.356850000000001
C      46.993800000000000     49.360299999999995     47.069550000000000
C      45.815600000000003     47.157799999999995     47.142250000000004
C      46.044800000000002     48.412899999999993     46.529650000000004
H      50.334100000000007     46.602699999999999     50.172249999999998
H      49.658600000000007     48.039599999999993     50.455449999999999
H      51.119799999999998     48.217500000000001     48.166150000000002
H      49.800200000000004     46.944099999999999     47.535950000000000
H      48.787500000000001     45.495699999999999     49.226950000000002
H      47.517299999999999     46.019999999999996     50.328649999999996
H      49.451800000000006     49.876099999999994     48.592849999999999
H      49.377200000000002     49.534199999999998     47.065249999999999
H      46.156900000000000     45.601699999999994     48.790550000000003
H      47.291899999999998     50.504300000000001     46.887149999999998
H      44.880200000000002     46.761299999999999     46.866050000000001
H      45.571500000000000     48.818999999999996     45.544550000000001
