15

C      45.939299999999989     47.884549999999990     48.572199999999995
H      48.796599999999998     48.648649999999996     50.502000000000002
H      48.155799999999999     47.625049999999995     49.061199999999992
H      47.187400000000011     48.067349999999998     47.208700000000000
H      51.439000000000007     46.481349999999999     47.259499999999996
H      44.888499999999993     49.150550000000003     47.538099999999993
H      50.436700000000002     46.716749999999998     48.651999999999994
H      44.560999999999993     49.518650000000001     45.497999999999998
H      49.522599999999997     47.472149999999992     47.169000000000004
N      50.444299999999998     46.539649999999995     47.698600000000006
O      45.352999999999994     48.969549999999991     46.145400000000002
O      48.683999999999997     47.503249999999994     50.217800000000004
O      46.914599999999993     47.153549999999996     48.314600000000006
O      48.349400000000003     48.397749999999995     46.870500000000000
O      44.862600000000000     48.410750000000000     48.720300000000002
