6

C      47.285549999999994     48.476224999999985     47.376969999999993
C      48.128650000000007     47.981954999999992     48.550460000000001
H      47.630550000000014     47.007304999999995     48.711680000000001
H      49.278250000000000     47.741794999999996     48.138790000000000
H      48.042950000000005     48.638504999999995     49.415610000000001
O      46.721750000000000     48.992695000000005     46.584389999999999
