6

C      47.471299999999985     47.913099999999993     48.256849999999986
C      48.615799999999993     48.347200000000001     47.850249999999996
H      46.978300000000004     47.002200000000002     47.742049999999999
H      46.704300000000003     48.201200000000000     48.902149999999999
H      49.140900000000002     48.997799999999998     48.383249999999997
H      49.295699999999997     47.823599999999999     47.097850000000001
