6

C      48.500499999999988     48.121399999999994     48.279599999999995
C      47.527699999999996     48.123000000000012     47.527600000000007
H      49.210400000000007     47.288100000000007     48.340900000000005
H      48.756299999999996     48.911200000000001     48.826599999999999
H      46.789599999999993     48.777000000000008     47.557100000000005
H      47.063999999999993     47.088799999999999     47.173400000000001
