5

C      47.745999999999995     48.232049999999994     47.991299999999988
H      47.129599999999996     48.832850000000008     47.170900000000003
H      48.870400000000004     48.172650000000004     48.027699999999996
H      47.414000000000001     46.997950000000003     48.202600000000004
H      47.366200000000006     49.002049999999997     48.829099999999997
