12

C      46.188299999999984     49.678849999999990     47.353899999999996
C      48.155399999999993     48.066450000000003     47.503399999999999
C      46.625299999999989     48.249150000000000     47.423900000000003
C      47.623399999999990     49.344650000000001     47.587899999999991
C      48.649799999999999     47.005250000000004     48.532999999999987
C      50.120899999999985     46.765150000000006     48.735399999999998
H      45.153699999999994     49.828050000000005     47.047200000000004
H      48.331799999999980     47.643150000000006     46.415300000000002
H      48.193399999999990     47.116450000000000     49.584699999999998
H      48.077699999999986     46.171949999999995     48.640500000000003
H      50.056799999999988     46.485649999999993     47.579400000000007
O      50.846300000000006     46.270849999999996     49.561400000000006
