22

C      45.629639999999995     48.960449999999994     47.293944999999994
C      46.256609999999995     49.131650000000000     48.721674999999998
C      47.051049999999989     48.067450000000001     46.497905000000003
C      47.860879999999995     46.630950000000006     48.475535000000001
C      48.027919999999995     47.826450000000001     47.537105000000004
C      47.625770000000003     48.347150000000006     48.832815000000004
C      49.343559999999997     47.608150000000002     46.910305000000001
C      48.710899999999995     49.089049999999993     49.530584999999995
C      50.457319999999996     48.064450000000001     47.739714999999997
C      50.025779999999997     48.698550000000004     48.919275000000006
H      44.507279999999994     48.724049999999998     47.449114999999999
H      45.809920000000005     49.777050000000010     46.570344999999996
H      46.256639999999990     50.288549999999994     48.627895000000002
H      45.407629999999997     48.902149999999999     49.567985000000000
H      47.601799999999997     48.689250000000001     45.624614999999999
H      46.634069999999994     47.140050000000002     46.133814999999998
H      48.489320000000006     46.175750000000001     49.164575000000006
H      47.599460000000008     45.711450000000006     47.838515000000008
H      49.329920000000001     47.063350000000000     45.944225000000003
H      48.586189999999988     49.783149999999999     50.375385000000001
H      51.492720000000006     47.760350000000003     47.644005000000000
H      50.832970000000003     49.029850000000003     49.610985000000007
