5

C      48.607249999999993     48.511349999999986     48.281899999999993
C      47.653149999999997     47.669849999999997     47.762500000000003
H      46.634349999999998     48.077150000000003     47.718100000000007
H      47.747949999999989     46.633049999999997     48.055999999999997
O      49.365650000000002     49.366950000000003     48.276300000000006
