22

C      45.966399999999993     47.220349999999996     46.230999999999995
C      47.300500000000007     46.339050000000000     46.465200000000003
C      46.134999999999998     48.620549999999994     47.018599999999999
C      50.277600000000000     49.949749999999995     50.013700000000000
C      47.409100000000002     48.398750000000007     47.797500000000007
C      48.159799999999997     47.367550000000008     47.364700000000006
C      48.056800000000003     49.593949999999992     48.354700000000001
C      49.615000000000002     47.049850000000006     47.585900000000002
C      49.436500000000002     49.317350000000005     48.725299999999997
C      50.239899999999999     48.162149999999997     48.412300000000002
H      45.028399999999998     46.866849999999999     46.851900000000001
H      45.492600000000003     47.281850000000006     45.058500000000002
H      48.062199999999997     45.999850000000009     45.708000000000006
H      46.841600000000000     45.373550000000009     47.205599999999997
H      46.659700000000008     49.476450000000000     46.204100000000004
H      45.275799999999997     48.747850000000000     47.701200000000007
H      50.971600000000002     50.626449999999991     49.434999999999995
H      49.692399999999999     50.177949999999996     50.941499999999998
H      47.464599999999997     50.497050000000002     48.714500000000008
H      50.048400000000001     46.188749999999999     47.155499999999996
H      50.732399999999991     49.013850000000005     50.415199999999992
H      50.894600000000004     47.875150000000005     49.072499999999998
