22

C      47.526949999999999     50.784999999999997     48.113249999999994
C      47.579549999999998     50.320200000000000     49.553549999999994
C      47.246150000000000     49.632100000000008     47.178649999999998
C      48.147349999999989     48.773099999999999     49.838349999999998
C      48.037850000000006     48.194000000000003     47.266249999999992
C      48.473849999999999     47.855500000000006     48.592949999999995
C      47.809250000000006     47.218800000000002     46.181149999999995
C      49.104149999999990     46.452900000000000     48.567850000000000
C      48.355649999999997     45.882700000000000     46.498849999999997
C      48.902549999999991     45.386200000000002     47.732849999999992
H      46.714250000000007     51.588300000000004     48.193649999999998
H      48.451049999999995     51.206699999999998     47.766349999999996
H      46.583449999999999     50.417100000000005     49.724550000000001
H      48.137049999999988     50.989300000000000     50.090049999999998
H      47.243949999999998     50.240499999999997     46.192649999999993
H      46.206150000000008     49.130099999999999     47.124849999999988
H      47.375850000000000     48.334100000000007     50.464250000000000
H      48.952349999999996     48.689000000000007     50.592649999999999
H      47.211650000000006     47.694800000000001     45.407350000000001
H      49.793849999999992     46.406999999999996     49.382950000000001
H      47.896050000000002     45.015699999999995     45.831849999999996
H      49.240549999999999     44.411699999999996     47.977049999999998
