22

C      45.670349999999985     48.283489999999993     48.307399999999994
C      45.784050000000001     46.680080000000004     48.020200000000003
C      46.797049999999992     48.846289999999996     49.011800000000001
C      47.236449999999998     46.309849999999997     47.953299999999999
C      47.976949999999995     48.819789999999998     48.094600000000000
C      48.152049999999996     47.422989999999999     47.487300000000005
C      48.938650000000003     49.917090000000002     47.946600000000004
C      49.289949999999997     47.291290000000004     46.655000000000001
C      50.144449999999999     49.613390000000003     47.178300000000000
C      50.372049999999994     48.266990000000000     46.631100000000004
H      44.648450000000004     48.336389999999994     48.631299999999996
H      45.500449999999994     48.675789999999999     47.295400000000001
H      45.339149999999997     46.161169999999998     48.803500000000000
H      45.314450000000001     46.810290000000002     47.087500000000006
H      46.865450000000003     48.143190000000004     49.845600000000005
H      46.501449999999998     49.886489999999995     49.136400000000002
H      47.620749999999994     46.176119999999997     49.053399999999996
H      47.508149999999993     45.085509999999999     47.634200000000000
H      48.838549999999991     50.914490000000001     48.428299999999993
H      49.921849999999999     46.324110000000005     46.154399999999995
H      50.951149999999991     50.347690000000000     47.077799999999996
H      51.351549999999996     48.185789999999997     46.229300000000002
