22

C      49.334149999999994     46.121299999999991     48.767150000000001
C      47.913550000000001     45.957900000000002     49.565450000000006
C      49.016149999999996     46.700499999999998     47.332749999999997
C      47.245849999999990     47.388399999999997     49.783949999999997
C      48.006149999999991     47.804499999999997     47.272550000000003
C      47.304749999999999     48.211199999999998     48.575550000000000
C      47.761550000000000     48.607599999999998     46.173150000000000
C      46.492549999999994     49.416800000000002     48.585249999999995
C      47.045749999999998     49.908700000000003     46.112950000000005
C      46.393549999999991     50.150100000000002     47.327750000000002
H      50.279150000000001     46.595400000000005     48.502249999999997
H      49.654949999999999     45.032000000000004     48.853850000000001
H      47.257349999999988     45.111300000000007     49.068350000000002
H      48.314349999999990     45.503300000000003     50.647250000000007
H      48.598349999999996     45.727799999999995     46.966850000000001
H      49.908049999999989     46.872199999999999     46.834150000000001
H      48.046250000000001     47.576600000000006     50.688449999999996
H      46.426849999999988     47.668900000000001     50.398950000000006
H      48.350449999999995     48.338500000000003     45.311550000000004
H      45.927349999999990     49.722000000000001     49.450750000000006
H      47.066149999999993     50.608899999999998     45.337650000000004
H      45.720849999999999     50.967999999999996     47.251550000000002
