22

C      48.103896999999989     50.055349999999990     46.492749999999994
C      46.858966999999993     49.448950000000004     46.190150000000003
C      46.233666999999997     48.340250000000005     47.037549999999996
C      49.181487000000004     49.026249999999997     47.011550000000000
C      47.283477000000005     47.730849999999997     48.081950000000006
C      48.702207000000001     48.134049999999995     48.214450000000006
C      46.785927000000001     46.673949999999998     48.928250000000006
C      49.613897000000009     47.563350000000007     49.234250000000003
C      47.660627000000005     46.160550000000008     49.931750000000008
C      49.076166999999998     46.509850000000007     50.007850000000005
H      47.847746999999998     50.743350000000000     47.268050000000002
H      48.642887000000002     50.683050000000001     45.711750000000002
H      45.897417000000004     50.180450000000000     46.157250000000005
H      46.710426999999996     49.183050000000001     45.209950000000006
H      45.434602999999996     48.581049999999998     47.426450000000003
H      45.631006999999997     47.460050000000003     46.591550000000012
H      49.769216999999998     49.844950000000004     47.529850000000003
H      49.771276999999998     48.515549999999998     46.220750000000002
H      45.800246999999999     46.053750000000001     48.616849999999999
H      50.565397000000004     47.940950000000008     49.614450000000005
H      47.437826999999999     45.256650000000000     50.349750000000000
H      49.567847000000000     46.147449999999999     50.790049999999994
