22

C      48.315049999999999     45.920349999999992     46.394399999999983
C      47.393349999999998     45.489450000000005     47.395699999999991
C      48.050650000000005     47.364649999999997     46.262899999999988
C      47.794449999999998     46.060850000000002     48.725999999999999
C      48.492050000000006     48.315250000000006     47.373999999999995
C      48.526849999999996     47.534750000000003     48.623799999999989
C      49.011149999999986     49.706150000000008     47.438399999999987
C      48.674350000000004     48.285150000000002     49.825399999999988
C      49.372749999999996     50.394450000000006     48.564799999999991
C      49.049849999999992     49.670850000000002     49.740099999999998
H      48.123949999999994     45.418849999999999     45.541899999999998
H      49.468050000000005     45.608049999999999     46.414400000000001
H      47.342749999999995     44.385249999999999     47.273599999999988
H      46.360950000000003     45.748249999999999     47.102399999999989
H      48.192250000000001     47.755650000000003     45.240600000000001
H      46.860050000000001     47.554649999999995     46.267499999999998
H      46.743650000000002     46.201750000000004     49.523099999999999
H      48.287450000000007     45.363849999999999     49.277699999999996
H      48.970149999999990     50.214750000000009     46.382199999999997
H      48.447350000000000     47.732849999999999     50.759399999999999
H      49.639049999999997     51.614750000000001     48.402599999999993
H      49.297950000000000     50.039050000000003     50.590199999999996
