22

C      49.336749999999995     46.002499999999991     48.916774999999987
C      48.297649999999997     45.177599999999998     48.044894999999997
C      49.198250000000002     47.560499999999990     48.563024999999996
C      47.273150000000001     45.974499999999992     47.177154999999999
C      48.684750000000001     48.504499999999993     47.289755000000000
C      47.639050000000005     47.601500000000001     47.867414999999994
C      48.930850000000000     49.914699999999996     47.406565000000001
C      46.521450000000002     48.558700000000002     48.161625000000001
C      47.828449999999997     50.649400000000000     48.004634999999993
C      46.566949999999999     49.932699999999997     48.297744999999992
H      49.129550000000002     45.681699999999992     49.894845000000004
H      50.512250000000002     45.890899999999988     48.721005000000005
H      47.955850000000005     44.267600000000002     48.841565000000003
H      48.948250000000002     44.585899999999995     47.382485000000003
H      49.107149999999997     48.196899999999999     46.395634999999999
H      49.894849999999998     48.195099999999996     48.970845000000011
H      47.544350000000001     45.873300000000000     46.105154999999996
H      46.330350000000003     45.530699999999996     47.413115000000005
H      49.835349999999998     50.247999999999990     47.020235000000000
H      45.487749999999998     48.190299999999993     48.361294999999998
H      47.748350000000002     51.732399999999998     48.119784999999993
H      45.843950000000000     50.380299999999991     48.600774999999999
