22

C      45.997900000000001     48.041599999999995     49.436999999999998
C      45.228000000000009     47.377499999999998     48.182000000000002
C      47.181700000000006     48.902799999999999     49.106000000000002
C      46.462899999999991     47.054800000000000     47.069100000000006
C      48.201800000000006     48.249800000000008     48.371600000000008
C      47.879199999999997     47.290900000000008     47.453700000000005
C      49.714299999999994     48.464399999999998     48.686800000000005
C      48.808899999999994     46.320800000000006     46.948500000000003
C      50.602099999999993     47.722500000000004     48.074000000000005
C      50.113699999999994     46.776800000000001     46.994400000000006
H      45.269999999999996     48.897099999999995     49.888600000000004
H      46.046799999999990     47.098500000000001     50.103100000000005
H      45.079200000000000     46.288000000000004     48.169700000000006
H      44.231700000000004     47.674300000000002     47.857200000000006
H      46.964200000000005     50.402900000000002     48.777900000000002
H      47.506500000000003     49.291399999999996     50.148599999999995
H      46.089600000000004     47.796000000000006     46.240700000000004
H      46.254400000000004     46.125500000000002     46.728200000000008
H      50.011499999999998     48.989800000000002     49.531800000000011
H      48.307100000000005     45.597099999999998     45.851400000000005
H      51.768299999999996     47.632000000000005     48.281200000000005
H      50.773799999999994     46.500399999999999     46.143800000000006
