16

C      45.877499999999998     48.169349999999994     47.481299999999990
C      47.044599999999996     49.213550000000005     50.075599999999994
C      47.321500000000007     48.180550000000004     47.438500000000005
C      46.978100000000005     48.739550000000001     48.802999999999997
C      47.922000000000004     49.190249999999999     46.597600000000000
C      48.236700000000006     46.957149999999992     47.519899999999993
C      49.206499999999998     48.520050000000005     46.237499999999997
C      49.457299999999996     47.388249999999992     46.962000000000003
H      45.592300000000002     48.670849999999994     46.362300000000005
H      45.576400000000000     47.283549999999998     47.760700000000000
H      47.913800000000002     48.859349999999999     50.742400000000004
H      45.964400000000005     48.978249999999996     50.583800000000011
H      47.431800000000003     49.908750000000005     46.155400000000000
H      48.003400000000006     46.091249999999995     47.950699999999998
H      49.765400000000007     48.820950000000003     45.257599999999996
H      50.423600000000000     46.838550000000005     46.872100000000003
