22

C      50.347099999999990     46.610549999999989     47.402299999999990
C      50.567399999999999     48.185350000000000     47.035399999999996
C      48.975200000000001     46.174049999999994     48.259199999999993
C      49.095900000000000     48.706450000000004     46.821799999999996
C      48.025599999999997     47.234250000000003     48.361800000000002
C      48.030099999999997     48.607550000000003     47.920499999999997
C      46.946399999999997     46.999250000000004     49.358400000000003
C      47.221400000000003     49.772949999999994     48.400899999999993
C      45.815899999999999     47.932850000000002     49.673299999999998
C      46.079499999999996     49.284850000000006     49.186300000000003
H      50.394700000000000     45.906850000000006     46.659599999999998
H      51.222999999999999     46.021150000000006     47.804599999999994
H      51.038699999999999     48.142350000000008     46.123699999999999
H      50.967599999999990     48.856750000000005     48.001599999999996
H      48.382899999999999     45.226849999999999     48.184299999999993
H      49.039699999999996     46.030050000000003     49.438099999999991
H      49.314500000000002     49.721950000000007     46.587800000000001
H      48.740000000000002     48.363650000000007     45.859899999999996
H      47.006999999999998     46.165149999999997     50.140100000000004
H      47.342300000000002     50.773150000000001     48.028800000000004
H      44.777000000000001     47.608850000000004     49.925100000000000
H      45.117699999999999     50.067750000000004     49.178899999999999
