44

C      46.363349999999997     49.018799999999992     48.089899999999986
C      46.330450000000006     47.579000000000001     48.615699999999997
C      50.350950000000005     46.207000000000001     46.494700000000002
C      49.309550000000009     45.567499999999995     47.365599999999993
C      47.723850000000006     49.147900000000000     47.330599999999997
C      47.146050000000010     46.520899999999997     48.202300000000001
C      50.746950000000005     48.690500000000000     45.712200000000003
C      48.355849999999997     46.742400000000004     47.577300000000001
C      49.902450000000009     47.666200000000003     46.326299999999996
C      48.602550000000001     47.959000000000003     46.977499999999999
C      45.631050000000009     50.185800000000000     48.510799999999996
C      44.919150000000009     50.081099999999992     49.807600000000001
C      45.214850000000006     49.009799999999998     50.597199999999994
C      45.630749999999999     47.846199999999996     49.795999999999999
C      51.396650000000001     45.400300000000001     45.934099999999994
C      51.479750000000003     44.041699999999999     46.290799999999997
C      50.624050000000004     43.394500000000001     47.240999999999993
C      49.355150000000002     44.120199999999997     47.509499999999996
C      45.978249999999996     51.490899999999996     47.647900000000000
C      45.096449999999997     52.595200000000006     47.880800000000001
C      44.251250000000006     52.606700000000004     49.087499999999999
C      44.321450000000006     51.455399999999997     49.901400000000002
C      47.908350000000006     50.420699999999997     46.695999999999991
C      47.153449999999999     51.663399999999996     46.816499999999998
C      48.278750000000009     52.556899999999999     47.644600000000004
C      46.976750000000003     52.289500000000004     45.374800000000000
H      47.368350000000000     45.516500000000001     48.590899999999998
H      44.572550000000000     48.685600000000001     51.387300000000003
H      45.929150000000000     46.808999999999997     50.384200000000000
H      51.908949999999997     46.019400000000005     45.149099999999997
H      52.403349999999996     43.533900000000003     45.996999999999993
H      50.954550000000005     42.377899999999997     47.801099999999998
H      48.571050000000007     43.674499999999995     48.037100000000002
H      45.179449999999996     53.598399999999998     47.338799999999999
H      43.596650000000004     53.622100000000003     49.274700000000003
H      43.986150000000002     51.966999999999999     50.725299999999997
H      48.876849999999997     50.510099999999994     45.955599999999997
H      49.000350000000005     53.565799999999996     46.739100000000001
H      48.854149999999997     51.990700000000004     48.346799999999995
H      47.759149999999998     53.185400000000001     48.464300000000001
H      46.343449999999997     53.118600000000001     45.336199999999998
H      46.644550000000002     51.606899999999996     44.612699999999997
H      48.097650000000009     52.787099999999995     45.199099999999994
O      51.540749999999996     49.478999999999999     45.748899999999999
