21

C      45.540149999999990     48.594199999999987     47.419849999999990
C      45.623549999999994     47.253999999999998     48.204749999999990
C      46.835349999999998     49.418199999999992     47.487349999999999
C      47.011949999999999     46.679200000000002     48.553750000000008
C      48.179850000000002     48.657800000000002     47.714149999999989
C      48.261349999999993     47.315800000000003     48.361050000000006
C      49.399150000000006     49.443999999999996     47.407849999999996
C      49.597149999999999     46.879299999999994     48.811149999999998
C      50.441450000000003     48.903600000000004     48.269950000000009
C      50.709249999999997     47.672900000000006     49.083849999999998
H      44.780349999999999     49.524099999999997     47.309750000000001
H      45.502749999999999     48.245500000000000     46.342050000000000
H      45.213849999999994     46.584799999999994     47.359349999999999
H      44.874049999999997     47.029299999999999     48.961549999999995
H      47.159250000000000     49.916599999999995     46.526949999999999
H      46.864649999999997     50.292999999999999     47.979650000000007
H      46.894750000000002     45.917499999999997     49.306749999999994
H      49.486849999999990     50.294199999999996     46.834150000000001
H      49.844549999999998     45.705800000000004     48.849750000000000
H      51.118250000000003     49.638500000000001     48.046650000000000
H      51.219650000000001     46.971200000000003     49.657950000000000
