17

C      47.958199999999991     48.749849999999988     48.265299999999996
C      46.729599999999998     48.985349999999997     49.087699999999998
C      45.660800000000002     49.132249999999999     48.155299999999997
C      46.340899999999998     48.981849999999994     46.849500000000006
C      47.580399999999990     48.799949999999995     46.882199999999997
C      49.333799999999989     48.353749999999998     48.506299999999996
C      49.786600000000000     47.397050000000000     47.558499999999995
C      50.610599999999998     48.207949999999997     49.366099999999989
H      46.611100000000000     48.735349999999997     50.140599999999992
H      44.530700000000003     49.234150000000000     48.347699999999989
H      45.821999999999996     49.018050000000002     45.879000000000005
H      48.230799999999995     48.651350000000001     45.859400000000008
H      49.210900000000002     46.765850000000000     46.868200000000002
H      50.969299999999997     47.174949999999995     47.634699999999995
H      51.469299999999997     47.935049999999997     48.825599999999994
H      50.636699999999998     47.377150000000000     50.049299999999988
H      50.885399999999997     49.163649999999990     49.981399999999994
