42

C      47.105649999999983     48.278164999999994     48.579329999999999
C      46.552849999999999     49.524565000000003     47.653850000000006
C      45.358550000000001     45.133355000000002     45.725319999999996
C      46.669350000000001     46.898855000000005     48.641480000000001
C      46.024849999999994     45.077195000000003     47.049840000000003
C      45.103850000000001     46.475485000000006     45.343850000000003
C      45.637549999999997     46.498135000000005     47.434610000000006
C      45.486349999999995     47.424475000000001     46.442999999999998
C      48.246149999999993     48.783865000000006     49.316320000000005
C      48.444949999999999     50.387264999999999     49.273359999999997
C      47.309049999999992     50.706565000000012     48.138559999999998
C      45.752649999999996     50.710365000000010     48.350759999999994
C      49.249649999999995     47.799675000000001     49.834819999999993
C      50.381749999999990     48.564165000000003     50.349829999999997
C      50.518549999999998     49.988465000000005     50.253600000000006
C      49.424749999999996     50.900065000000005     50.012860000000003
C      48.937149999999995     46.378264999999999     49.855180000000004
C      47.579549999999990     46.026634999999999     49.268559999999994
C      47.209049999999998     44.548315000000002     49.123369999999994
C      46.670150000000000     44.051715000000002     47.881280000000004
C      46.191849999999995     44.020925000000005     50.310779999999994
C      48.500349999999990     43.547525000000000     49.281080000000003
C      49.541649999999997     52.405465000000007     50.633249999999990
H      45.428449999999991     44.184685000000002     45.147679999999994
H      44.525449999999999     46.909755000000004     44.586550000000003
H      47.759949999999996     51.312465000000003     47.317210000000003
H      51.474550000000001     50.531665000000004     50.549449999999993
H      49.711049999999993     45.755805000000002     50.158090000000001
H      46.513849999999998     43.027125000000005     47.690399999999997
H      46.524749999999990     43.033285000000006     50.922149999999988
H      45.889249999999997     44.670855000000003     51.144549999999995
H      45.627249999999997     43.562004999999999     49.529139999999998
H      49.458449999999992     44.083045000000006     49.481920000000002
H      47.892849999999989     43.029975000000000     50.170079999999999
H      48.505649999999996     42.946735000000004     48.498260000000002
H      50.324849999999991     53.053264999999996     50.041979999999995
H      50.328849999999996     52.290064999999998     51.413449999999997
H      48.541350000000001     52.844864999999999     50.891549999999995
H      51.172750000000001     47.924895000000006     50.787250000000000
H      45.553350000000002     49.693265000000011     45.747370000000004
N      46.004249999999992     48.835565000000003     46.395820000000001
O      44.845949999999995     51.503264999999999     48.425029999999992
