22

C      46.023699999999991     46.153249999999993     47.540649999999985
C      47.554600000000001     45.697149999999993     47.022550000000003
C      45.976799999999997     47.790750000000003     47.842250000000000
C      48.505600000000001     46.005249999999997     47.994949999999996
C      47.396599999999999     48.324349999999995     48.209349999999993
C      48.656799999999997     47.522649999999999     48.352150000000002
C      47.642399999999995     49.794349999999994     48.446549999999995
C      49.725299999999997     48.109849999999994     49.174749999999996
C      48.749600000000001     50.325749999999999     48.988549999999996
C      49.998799999999996     49.529349999999994     49.415450000000000
H      45.903399999999998     45.647250000000000     48.392249999999997
H      45.118800000000000     45.797249999999998     46.922350000000002
H      47.955199999999998     46.334050000000005     46.067050000000002
H      47.566199999999988     44.671250000000001     46.826450000000001
H      45.189799999999998     48.140450000000001     47.062549999999995
H      45.211700000000000     47.903949999999995     48.600249999999996
H      49.401899999999998     45.511349999999993     47.941049999999997
H      48.225199999999994     45.319350000000000     48.835150000000006
H      46.917499999999997     50.492249999999999     48.379950000000001
H      50.808699999999995     47.943250000000006     49.433050000000001
H      48.871600000000001     51.328749999999999     49.392549999999993
H      50.881200000000000     50.080550000000002     49.932949999999998
