36

C      45.009849999999993     45.920899999999996     46.775019999999998
C      49.412149999999997     47.672200000000004     48.061449999999994
C      50.386550000000000     46.945899999999995     48.956170000000000
C      46.499750000000006     44.062600000000003     47.504729999999995
C      48.145849999999996     47.219600000000000     47.474879999999999
C      49.892449999999997     45.621299999999998     49.112930000000006
C      46.278049999999993     45.497599999999998     47.411709999999999
C      47.808149999999998     43.909900000000000     48.032560000000004
C      47.668949999999995     45.933199999999999     47.842759999999998
C      48.453649999999996     45.105200000000004     48.669730000000001
C      49.564250000000001     49.094200000000001     47.900049999999993
C      50.693950000000001     49.997100000000003     48.441069999999996
C      51.246750000000006     49.104399999999998     49.584899999999990
C      51.281049999999993     47.826200000000000     49.790830000000000
C      48.867350000000002     49.509699999999995     46.707819999999998
C      49.234849999999994     50.847600000000000     46.049529000000007
C      50.062049999999999     51.787099999999995     46.782539999999997
C      50.974950000000007     51.266400000000004     47.814489999999992
C      47.848349999999996     48.387600000000006     46.378567000000004
C      46.425950000000000     48.884200000000007     46.234752000000000
C      52.105149999999995     49.892200000000003     50.366969999999995
C      43.498050000000006     46.099000000000004     46.729219999999998
H      45.765050000000002     43.296399999999998     47.194180000000003
H      50.524950000000004     45.173499999999997     50.064040000000006
H      48.431349999999995     43.044600000000003     47.935910000000007
H      51.656149999999997     47.451200000000000     50.713300000000004
H      48.721750000000000     51.252899999999997     44.980430000000013
H      50.432050000000004     52.955399999999997     46.599140000000006
H      51.729950000000002     51.876599999999996     48.134729999999990
H      47.935350000000000     47.761399999999995     45.142930000000007
H      43.025949999999995     45.076000000000001     46.439954999999998
H      43.148550000000000     46.254800000000003     47.920789999999997
H      43.300650000000005     46.742999999999995     45.837125999999998
O      45.970849999999999     46.141800000000003     46.010615999999999
O      52.974050000000005     50.381399999999999     51.019569999999987
O      45.362250000000003     49.209500000000006     46.459219000000004
