22

C      46.474049999999998     48.996549999999992     49.687049999999992
C      47.270750000000007     48.133150000000001     50.611949999999993
C      46.391050000000007     48.737649999999995     48.233149999999995
C      48.746850000000009     47.975449999999995     49.675150000000002
C      47.612949999999998     47.892350000000000     47.581649999999996
C      48.698250000000002     47.454149999999998     48.404550000000000
C      47.471350000000001     47.434149999999995     46.171849999999992
C      49.697850000000003     46.846249999999998     47.614750000000001
C      48.274550000000005     46.558250000000001     45.485249999999994
C      49.436549999999997     46.192250000000001     46.267849999999996
H      46.857450000000000     50.167149999999999     49.768749999999997
H      45.526150000000001     49.024850000000001     50.157849999999996
H      46.935850000000002     46.976649999999999     50.808650000000000
H      47.433650000000000     48.640349999999998     51.576650000000001
H      45.601550000000003     47.719249999999995     48.147649999999999
H      45.987850000000009     49.480949999999993     47.567750000000004
H      49.621350000000007     47.477150000000002     50.085949999999997
H      48.954250000000002     48.961950000000002     49.393749999999997
H      46.699050000000000     48.006149999999998     45.708550000000002
H      50.473849999999999     46.640549999999998     48.309250000000006
H      48.251750000000001     46.401949999999999     44.423349999999999
H      50.293450000000007     45.832850000000001     45.754649999999998
