6

C      48.178749999999994     47.791749999999993     47.466049999999996
C      47.830350000000003     48.012549999999990     48.725649999999995
H      47.513550000000002     47.927849999999992     46.748849999999997
H      49.169249999999998     47.470050000000001     47.381750000000004
H      48.677650000000007     48.241649999999993     49.251150000000003
H      46.830750000000002     48.529949999999999     48.896049999999995
