5

C      47.638249999999992     48.093549999999993     47.769149999999996
H      47.497450000000001     48.311149999999998     48.850749999999991
H      48.842550000000003     48.090750000000000     47.624049999999997
H      47.406750000000002     47.190550000000002     47.149250000000009
H      47.157449999999997     48.809449999999998     47.161450000000002
