23

C      47.960299999999989     44.924099999999989     48.787899999999986
C      48.204599999999999     45.945399999999992     47.692099999999996
C      47.256900000000002     47.250299999999996     47.808499999999995
C      47.655199999999994     48.439599999999999     46.685599999999994
C      48.821100000000001     48.913499999999999     48.601200000000006
C      47.363500000000002     48.796000000000006     48.196799999999996
C      49.468000000000004     50.012000000000000     49.379099999999994
C      46.625600000000006     49.623399999999990     48.840900000000005
C      48.548699999999997     51.054900000000004     49.718099999999993
C      47.128500000000003     50.826999999999998     49.495599999999996
H      48.901899999999998     44.479399999999998     49.177400000000006
H      47.488299999999995     44.105199999999996     48.397800000000004
H      47.188900000000004     45.428300000000000     49.358099999999993
H      49.281899999999993     46.144799999999996     47.980400000000003
H      48.844600000000000     46.061900000000009     46.752899999999997
H      46.209699999999998     46.750500000000002     47.707800000000006
H      49.519100000000009     48.204700000000003     48.257300000000001
H      46.937100000000001     48.833599999999990     45.926299999999998
H      48.825800000000001     48.663399999999996     46.367300000000000
H      50.558400000000006     50.244500000000002     49.298000000000002
H      45.441599999999994     49.831400000000002     48.819699999999997
H      48.972300000000004     51.894800000000004     50.073700000000002
H      46.226699999999994     51.613999999999990     49.890799999999999
