22

C      48.783549999999991     48.488999999999990     45.747699999999988
C      48.439849999999993     47.165689999999998     45.634799999999998
C      47.777549999999998     49.505250000000004     46.427499999999995
C      48.456949999999992     46.361630000000005     47.037399999999991
C      47.412649999999992     48.723780000000005     47.770200000000003
C      47.766049999999993     47.336740000000006     48.067799999999991
C      46.951449999999994     49.568460000000002     48.831000000000003
C      47.724449999999997     46.648780000000002     49.259099999999989
C      46.756849999999993     48.883369999999999     49.995699999999999
C      47.225249999999996     47.482929999999996     50.242899999999992
H      48.654249999999998     49.037869999999998     44.716999999999999
H      49.728450000000002     48.422060000000002     46.314399999999992
H      49.231849999999987     46.707840000000004     44.910299999999992
H      47.536249999999995     46.947569999999999     45.182999999999993
H      47.056849999999997     50.141589999999994     45.950699999999998
H      48.719849999999994     50.130899999999997     46.369299999999996
H      49.564050000000002     46.211770000000001     47.227999999999994
H      47.924449999999993     45.463080000000005     47.362600000000000
H      46.525049999999993     50.536919999999995     48.721199999999996
H      47.965549999999993     45.496480000000005     49.481299999999990
H      46.271549999999998     49.469329999999999     50.851399999999998
H      47.306749999999994     46.927930000000003     51.283000000000001
