21

C      49.104247999999991     49.868499999999990     46.413049999999991
C      49.927887999999996     49.395600000000002     45.491349999999997
C      48.176867999999999     49.658000000000001     47.720450000000000
C      48.905268000000000     48.592700000000008     48.589849999999998
C      46.959387999999997     47.341500000000011     47.798349999999999
C      47.353498000000002     48.563600000000008     48.470050000000001
C      46.636898000000002     46.129300000000001     48.433949999999996
C      46.959527999999999     48.693600000000004     49.840149999999994
C      46.011057999999998     46.261200000000002     49.709549999999993
C      46.270237999999999     47.575299999999999     50.439049999999995
H      50.559758000000002     50.016500000000008     44.664249999999996
H      50.273617999999999     48.326800000000006     45.378549999999997
H      48.943447999999997     50.988900000000001     46.653250000000000
H      47.312238000000001     47.598600000000005     46.796750000000003
H      47.423657999999996     50.335000000000008     47.779550000000000
H      49.558807999999999     47.696600000000004     48.213049999999996
H      49.267048000000003     49.013100000000009     49.455349999999996
H      46.712497999999997     45.011099999999999     47.878349999999998
H      46.723337999999998     49.443300000000008     50.238450000000000
H      45.440241999999998     45.477100000000007     50.137749999999997
H      45.831123999999996     47.945000000000007     51.335750000000004
