6

C      47.499799999999993     47.437964999999991     47.900549999999996
C      48.376300000000001     48.568895000000005     47.983550000000001
H      47.656599999999990     47.095005000000000     46.933450000000001
H      47.289499999999997     46.772005000000000     48.830149999999996
H      48.710500000000003     49.227995000000000     47.135150000000003
H      48.397599999999990     48.671095000000001     49.066549999999999
