26

C      49.401849999999996     47.437399999999997     45.435882999999990
C      46.513850000000005     46.598900000000000     47.594582999999993
C      46.371150000000000     47.933999999999997     46.727583000000003
C      46.814449999999994     47.272599999999997     49.106182999999994
C      47.471050000000005     48.977499999999992     46.923482999999997
C      48.335949999999997     47.589199999999991     48.903883000000000
C      48.540250000000000     48.435800000000000     47.730983000000002
C      48.857950000000002     48.874099999999999     46.238382999999992
C      49.447749999999999     46.441000000000003     49.213182999999994
C      49.330449999999999     47.683099999999996     50.035682999999999
C      49.769949999999994     46.510499999999993     50.896282999999990
H      50.726550000000003     46.918999999999997     51.308883000000002
H      50.468149999999994     47.272300000000001     45.407982999999994
H      49.184349999999995     47.809299999999993     44.507382999999997
H      48.973550000000003     46.482299999999995     45.646183000000001
H      45.568250000000006     46.096500000000006     47.329182999999993
H      47.525649999999999     46.408999999999992     47.093583000000002
H      45.273449999999997     48.329499999999996     46.778382999999998
H      46.357349999999997     47.222299999999990     45.844783000000000
H      46.851450000000000     46.390900000000002     49.891282999999994
H      46.033050000000003     48.063499999999991     49.723582999999998
H      47.060050000000004     49.903499999999994     47.286782999999993
H      49.673249999999996     49.808399999999992     46.320883000000002
H      50.263350000000003     46.316099999999992     48.648783000000002
H      50.271649999999994     48.659499999999994     49.711982999999996
H      49.044750000000008     46.709199999999996     51.492617000000003
