22

C      49.550099999999986     46.568149999999989     48.316299999999998
C      50.507800000000003     47.560350000000000     47.666200000000003
C      48.784199999999998     47.103450000000009     49.542500000000004
C      49.897599999999997     49.034549999999996     47.633300000000006
C      47.769599999999997     47.967349999999996     48.727900000000005
C      48.232600000000005     48.964950000000002     47.823800000000006
C      46.432599999999994     47.479249999999993     48.241100000000003
C      47.360699999999994     49.620550000000009     46.885400000000004
C      45.544699999999992     47.833050000000000     47.183800000000005
C      46.051800000000000     49.018749999999997     46.503699999999995
H      50.108400000000003     45.552949999999996     48.529699999999991
H      48.922200000000004     46.051450000000003     47.694699999999997
H      51.529700000000005     47.558250000000001     48.054599999999994
H      50.854399999999998     47.445849999999993     46.759600000000006
H      48.133700000000005     46.441949999999991     50.369399999999999
H      49.081800000000001     47.711649999999992     50.404899999999998
H      50.645200000000003     49.751350000000002     48.068600000000004
H      50.087900000000005     49.769949999999994     46.548100000000005
H      45.989599999999996     46.708950000000002     48.834599999999995
H      47.973299999999995     50.447050000000004     46.392499999999998
H      44.470299999999995     47.600350000000006     47.009600000000006
H      45.333799999999997     49.437449999999998     45.595100000000002
