23

C      45.245649999999998     49.954624999999993     47.419649999999997
C      45.788850000000004     50.275795000000016     48.778549999999996
C      45.282050000000005     48.346765000000005     47.247450000000001
C      47.261249999999997     49.638895000000005     49.063649999999996
C      46.652350000000006     47.737785000000002     47.198350000000005
C      47.437149999999995     48.407355000000010     48.087250000000012
C      47.091349999999998     46.475836000000001     46.635550000000002
C      48.725349999999999     47.686795000000004     48.573049999999995
C      48.286750000000005     45.793735000000012     47.079350000000005
C      49.004049999999999     46.523062000000010     48.034350000000003
H      45.699149999999996     50.622555000000006     46.627050000000004
H      44.253049999999995     50.356525000000019     47.012050000000002
H      45.300850000000004     49.621525000000005     49.733150000000002
H      45.577450000000006     51.313065000000009     49.239350000000002
H      44.797549999999994     47.898205000000004     48.020949999999999
H      44.460649999999994     48.165535000000006     46.379249999999999
H      48.171950000000002     50.172295000000005     49.508550000000007
H      46.763550000000002     49.060775000000007     50.259249999999994
H      46.627950000000006     45.914843900000008     45.740750000000006
H      49.546450000000000     48.224165000000013     49.574150000000003
H      48.440049999999992     44.686934999999991     46.703550000000007
H      51.746950000000005     46.370132000000012     49.241250000000001
S      50.852650000000004     45.895535000000024     48.043250000000000
