22

C      48.652199999999993     47.653369999999988     45.974100000000000
C      48.637300000000003     45.979969999999994     46.097800000000007
C      46.975299999999997     47.884270000000001     47.850700000000003
C      48.758999999999993     45.828769999999992     47.700400000000002
C      48.383000000000003     48.220469999999992     47.450100000000006
C      48.376300000000001     47.157769999999999     48.474500000000006
C      48.740999999999993     49.605469999999997     47.606899999999996
C      48.879899999999999     47.584969999999998     49.799599999999998
C      49.392600000000002     49.942564000000004     48.815899999999999
C      49.266399999999997     48.908869999999993     49.762799999999999
H      49.432600000000001     47.970269999999999     45.521100000000004
H      48.241500000000002     48.427269999999993     45.400300000000001
H      47.582300000000004     45.567970000000003     45.872300000000010
H      49.465499999999999     45.519670000000005     45.554000000000002
H      46.189100000000003     47.565569999999994     47.235500000000002
H      46.399700000000003     48.863770000000002     48.488200000000006
H      47.905700000000003     45.074169999999995     47.971600000000009
H      49.810899999999997     45.551869999999994     48.061500000000009
H      48.411099999999998     50.427904999999996     46.789500000000004
H      48.936599999999999     46.909469999999999     50.575800000000001
H      49.723199999999999     50.925830000000005     48.957200000000000
H      49.740700000000004     49.226469999999992     50.599699999999999
