22

C      46.602599999999995     49.279699999999998     45.747899999999994
C      46.630900000000004     50.026300000000006     47.042199999999994
C      47.630100000000006     48.083000000000006     45.919600000000003
C      49.620100000000001     45.913100000000007     47.594499999999996
C      48.189600000000006     47.848700000000008     47.465199999999996
C      47.565800000000003     49.029200000000003     48.000399999999999
C      48.898500000000006     47.071500000000007     48.247000000000000
C      47.352399999999996     49.310400000000016     49.427000000000007
C      49.005400000000002     47.272900000000007     49.710599999999999
C      48.342199999999998     48.449000000000005     50.193899999999999
H      45.508299999999998     48.973800000000011     45.599599999999995
H      46.882300000000008     49.943000000000005     44.867699999999999
H      46.807099999999998     51.125399999999999     47.298400000000001
H      45.544000000000004     49.894300000000008     47.223699999999994
H      47.126200000000004     47.130900000000011     45.925500000000000
H      48.394100000000002     48.209200000000010     45.071299999999994
H      49.873600000000003     44.874600000000001     47.440399999999997
H      50.491700000000002     46.218700000000005     46.869600000000005
H      48.716400000000000     45.981400000000008     46.801000000000002
H      46.560000000000002     49.948600000000013     49.881799999999998
H      49.517699999999998     46.535100000000007     50.411799999999999
H      48.768099999999997     48.713100000000011     51.132300000000001
