5

C      48.001699999999992     48.113849999999985     47.982199999999992
H      47.304400000000001     47.291649999999997     47.709000000000003
H      48.543999999999997     47.557449999999996     48.846100000000007
H      47.364399999999996     48.708350000000003     48.509700000000009
H      48.695599999999999     48.361049999999992     47.153899999999993
