22

C      47.234649999999988     48.981199999999987     49.693519999999992
C      46.569449999999996     49.845900000000000     48.504040000000003
C      47.176350000000006     46.259900000000002     48.513219999999990
C      45.975050000000003     48.468199999999996     47.798439999999999
C      47.997849999999993     47.716700000000003     48.765630000000002
C      47.111349999999995     47.328199999999995     47.579509999999999
C      49.432949999999998     48.092399999999998     48.524979999999999
C      47.644150000000003     47.188400000000001     46.328969999999998
C      49.965650000000004     47.741699999999994     47.202910000000003
C      49.080249999999999     47.244500000000002     46.127029999999991
H      48.090550000000000     49.461799999999997     50.459559999999996
H      46.510050000000000     48.562500000000000     50.447669999999988
H      45.678850000000004     50.216099999999997     48.943730000000002
H      46.880649999999996     50.624800000000008     47.816509999999994
H      46.236049999999999     46.047899999999998     48.848959999999991
H      47.242449999999998     45.375199999999992     47.929720000000003
H      45.069949999999999     48.438800000000001     47.176580000000001
H      45.369250000000001     48.015799999999999     48.656999999999996
H      50.124850000000002     48.409300000000002     49.321089999999998
H      46.906849999999999     46.957300000000004     45.600679999999997
H      50.930050000000001     47.971000000000004     47.022409999999994
H      49.675850000000004     46.832099999999997     45.540440000000004
