22

C      48.030799999999992     49.569549999999992     46.407844499999996
C      46.500000000000000     49.451149999999991     46.714584500000001
C      49.320000000000007     49.666149999999995     47.504884500000003
C      46.349500000000006     49.102849999999997     48.172344499999994
C      48.834699999999998     48.716050000000003     48.632614499999988
C      47.489000000000004     48.285049999999991     48.811214499999991
C      49.825599999999994     47.678449999999991     49.051754500000001
C      47.009699999999995     47.164650000000002     49.709064499999997
C      49.516300000000001     46.475050000000003     49.727384499999999
C      48.108300000000000     46.353649999999995     50.041834499999993
H      48.233199999999997     48.567349999999998     46.596334499999998
H      47.926299999999998     49.640149999999998     45.389335500000001
H      45.825000000000003     50.436249999999994     46.429844499999987
H      46.100300000000004     48.572449999999996     46.019844500000005
H      49.144599999999997     50.643750000000004     47.723244499999993
H      50.289500000000004     49.546550000000003     46.992024499999999
H      45.116000000000000     48.786749999999991     48.458104500000005
H      46.234800000000007     50.039149999999999     48.695444499999994
H      50.884000000000000     47.740649999999995     48.613814500000004
H      45.972300000000004     47.015049999999995     49.879724499999995
H      50.287599999999998     45.677450000000000     49.817404499999995
H      48.047799999999995     45.356249999999996     50.610664499999999
