40

C      48.965849999999989     47.684349999999988     47.282814999999985
C      49.995449999999998     48.427449999999993     46.495874999999998
C      46.142149999999994     51.258449999999996     46.238985000000000
C      47.604149999999997     48.248149999999995     47.587185000000005
C      49.695249999999994     49.664150000000006     45.981214999999992
C      46.046650000000007     50.181950000000001     47.328194999999994
C      47.429449999999996     51.307749999999999     45.516504999999995
C      47.319550000000000     49.548349999999999     47.058624999999992
C      48.288350000000001     50.156850000000006     46.038865000000001
C      49.433749999999996     46.729849999999999     48.318604999999991
C      50.906050000000000     46.220849999999999     48.170204999999996
C      51.747850000000007     46.798850000000002     47.154494999999997
C      51.335249999999995     47.984849999999994     46.382274999999993
C      48.487349999999999     45.885949999999994     49.092005000000000
C      50.713649999999994     44.782650000000004     50.201404999999994
C      47.063349999999993     46.189449999999994     49.335605000000001
C      46.692349999999998     47.466449999999995     48.602204999999998
C      45.496350000000000     48.170550000000006     48.940304999999995
C      45.133950000000006     49.456950000000006     48.257504999999995
C      44.147449999999999     48.048249999999996     49.896405000000001
C      47.781950000000002     51.988749999999996     44.079504999999997
C      51.074949999999994     44.193049999999999     51.313305000000000
H      50.710950000000004     50.184749999999994     45.657534999999996
H      45.205850000000005     52.042749999999998     46.056505000000001
H      52.715949999999999     46.684150000000002     47.070904999999996
H      52.338550000000005     48.403350000000003     46.019925000000001
H      46.421950000000002     45.521850000000001     49.976804999999999
H      44.276950000000006     50.080950000000001     48.557904999999991
H      43.284050000000001     47.650450000000006     49.255205000000004
H      43.540450000000000     48.882350000000002     50.434605000000005
H      44.154450000000004     47.290049999999994     50.703305000000000
H      48.002450000000003     52.851249999999993     44.745705000000001
H      48.643149999999999     51.430250000000001     43.645394999999994
H      50.605749999999993     43.148750000000007     51.406305000000003
H      51.084750000000007     44.557150000000007     52.354605000000006
H      47.097249999999995     52.583650000000006     43.645645000000002
H      48.288850000000004     44.170850000000002     50.152105000000006
H      52.475150000000006     45.229849999999999     49.251104999999995
N      49.076450000000001     44.912750000000003     49.957205000000002
N      51.378149999999998     45.475250000000003     49.268905000000004
