5

C      48.009749999999997     47.948399999999992     47.985249999999994
H      47.394350000000003     47.496600000000001     47.190350000000002
H      48.605649999999997     47.016599999999997     48.162450000000000
H      47.750349999999997     48.983400000000003     47.549249999999994
H      47.478250000000003     48.132599999999996     48.809649999999998
