22

C      48.749049999999990     50.390400000000000     48.258849999999995
C      48.307249999999996     49.913800000000002     49.740750000000006
C      49.027650000000008     49.205300000000001     47.177650000000000
C      47.114750000000001     48.720999999999997     49.523450000000011
C      48.063050000000004     47.982199999999999     47.056650000000005
C      47.476550000000003     47.805100000000003     48.304950000000005
C      48.219650000000001     46.683000000000000     46.193150000000003
C      46.541750000000008     46.663900000000005     48.546450000000007
C      47.412450000000007     45.672699999999999     46.372050000000002
C      46.657049999999998     45.567000000000000     47.647350000000003
H      47.687150000000003     50.918500000000002     48.131750000000011
H      49.325950000000006     51.391500000000001     48.060650000000010
H      49.042450000000002     49.601400000000005     50.277550000000005
H      47.943250000000006     50.682300000000005     50.478149999999999
H      49.710549999999998     48.567700000000009     47.923050000000003
H      49.966149999999999     49.849300000000007     46.957250000000002
H      46.153550000000010     49.129200000000004     49.526650000000004
H      47.528750000000002     48.009300000000003     50.346150000000009
H      49.084350000000001     46.451100000000004     45.521850000000001
H      46.033850000000001     46.429300000000005     49.449550000000002
H      47.445850000000007     44.720099999999995     45.779350000000008
H      46.240949999999998     44.608499999999999     47.892150000000001
