20

C      46.110699999999994     48.739599999999996     47.879449999999991
C      45.539200000000001     47.229399999999998     47.711050000000000
C      46.901599999999995     49.490700000000004     48.926150000000007
C      46.910900000000005     46.489599999999996     47.136550000000000
C      48.193300000000001     47.324299999999994     47.545950000000005
C      47.554700000000004     48.650700000000001     47.768050000000002
C      49.474600000000002     47.149999999999991     48.102450000000005
C      48.573000000000000     49.754899999999992     48.319850000000002
C      50.477899999999998     48.031499999999994     48.638350000000003
C      50.082999999999991     49.445399999999992     48.755949999999999
H      45.074999999999996     49.146299999999997     47.633449999999996
H      44.568000000000005     47.258499999999998     46.984650000000002
H      45.401499999999999     46.852099999999993     48.715750000000000
H      46.722799999999999     49.464900000000000     49.927149999999997
H      46.544500000000006     45.360399999999998     47.408850000000001
H      46.952800000000003     46.565899999999999     46.072850000000003
H      50.014699999999998     46.253900000000002     47.937350000000009
H      48.746199999999995     50.639600000000002     47.548450000000003
H      51.431999999999995     47.823299999999989     48.887850000000000
H      50.772699999999993     50.176599999999993     49.187350000000009
