22

C      48.555349999999990     45.843799999999987     48.212649999999989
C      47.674250000000001     45.869000000000007     49.470050000000001
C      46.793050000000008     47.394500000000001     46.602649999999997
C      46.498850000000004     46.890599999999999     49.203549999999993
C      48.260149999999996     47.202199999999998     47.217050000000000
C      47.226050000000001     48.000099999999996     48.036149999999999
C      49.265749999999997     48.006200000000000     46.673349999999999
C      47.297150000000002     49.556500000000007     47.811249999999994
C      49.136049999999997     49.354400000000005     46.146449999999994
C      48.276550000000000     50.173899999999996     46.885349999999995
H      48.820549999999997     44.865400000000001     47.678649999999998
H      49.528149999999997     45.990800000000000     48.768050000000002
H      47.429150000000007     44.822899999999997     49.693749999999994
H      48.579250000000002     46.184800000000003     50.589950000000002
H      46.042950000000005     46.525600000000004     46.534749999999995
H      46.288550000000001     48.137599999999999     46.055149999999998
H      45.897149999999996     46.432899999999997     48.284149999999997
H      45.682050000000004     47.550400000000003     49.644549999999995
H      50.317949999999996     47.547699999999999     46.296849999999999
H      46.963149999999999     50.327800000000003     48.433049999999994
H      49.897350000000003     50.019799999999996     45.410049999999998
H      47.994650000000007     51.177100000000003     46.636550000000000
