23

C      47.612499999999997     46.101149999999990     46.090699999999998
C      48.559400000000004     47.493550000000006     46.280200000000001
C      47.458400000000005     45.898149999999994     47.705000000000005
C      47.049600000000005     47.494750000000003     50.001000000000012
C      47.861399999999996     47.209349999999993     48.573500000000003
C      48.240600000000008     48.151050000000005     47.714800000000004
C      47.841000000000001     49.599150000000002     47.845900000000007
C      49.443300000000001     47.647749999999995     48.736300000000007
C      48.483200000000004     49.987950000000005     49.053000000000004
C      49.344299999999997     49.015750000000004     49.470300000000002
H      45.994099999999996     47.478950000000005     49.451500000000003
H      47.007799999999996     45.986749999999994     45.332000000000001
H      48.353800000000000     45.127249999999997     46.289700000000003
H      49.845999999999997     47.217350000000003     46.259800000000006
H      48.430799999999998     48.208649999999999     45.443400000000004
H      46.361499999999999     45.540550000000003     48.191800000000008
H      48.253499999999995     45.152849999999994     47.901500000000006
H      47.171600000000005     46.569650000000003     50.626899999999999
H      47.174100000000003     48.394050000000000     50.667999999999999
H      47.472600000000007     50.130450000000003     47.044500000000006
H      50.005900000000004     46.903849999999998     49.243000000000002
H      48.184999999999995     50.872750000000003     49.494000000000007
H      49.760200000000005     49.152549999999998     50.598199999999999
