22

C      48.793114999999993     48.732749999999989     50.294479999999993
C      47.432815000000005     48.833149999999989     50.413550000000001
C      49.344115000000002     47.386849999999995     49.515069999999994
C      46.744215000000004     48.118150000000000     49.275679999999994
C      48.616315000000000     47.209149999999994     48.059629999999999
C      47.333415000000002     47.822449999999996     47.786389999999997
C      49.215715000000003     46.620449999999998     46.915490000000005
C      46.619215000000004     48.160550000000001     46.581090000000003
C      48.516715000000005     46.829149999999998     45.618769999999998
C      47.339215000000003     47.452349999999996     45.436909999999997
H      48.994415000000004     49.894750000000002     49.967759999999998
H      49.658815000000004     48.529150000000001     51.100890000000007
H      47.263815000000001     49.827649999999998     50.663129999999995
H      47.015815000000003     48.587149999999994     51.484989999999996
H      49.033214999999998     46.387249999999995     50.037949999999995
H      50.388114999999999     47.259549999999997     49.537189999999995
H      46.647215000000003     47.030850000000001     49.543329999999997
H      45.760935000000003     48.513049999999993     48.986540000000005
H      50.331815000000006     46.105249999999998     46.951999999999998
H      45.611885000000001     48.335349999999998     46.596609999999998
H      48.811015000000012     46.252649999999996     44.723609999999994
H      46.675715000000004     47.314650000000000     44.515010000000004
