49

C      51.502229999999997     48.822199999999988     49.548299999999990
C      43.995649999999998     49.246499999999997     47.693700000000007
C      51.606129999999993     47.681200000000004     48.608600000000010
C      44.326790000000003     48.058800000000005     46.992100000000008
C      50.104230000000001     49.360600000000005     49.730100000000007
C      45.219260000000006     50.030699999999996     48.507000000000005
C      50.714830000000006     46.298599999999993     46.719800000000006
C      45.764719999999997     46.175500000000000     46.267400000000009
C      49.601129999999998     45.659999999999997     45.962699999999998
C      47.179029999999997     45.624399999999994     46.003799999999998
C      46.485330000000005     49.490300000000005     49.567500000000010
C      50.449629999999999     47.325900000000004     47.751100000000008
C      45.765810000000002     47.571799999999996     46.738300000000010
C      48.362529999999992     46.276300000000006     46.248100000000008
C      49.014229999999998     49.020799999999994     48.950600000000009
C      46.547129999999996     49.493700000000004     48.093299999999999
C      49.223730000000003     48.089699999999993     47.718800000000002
C      46.783029999999997     48.409800000000004     47.214900000000000
C      48.079830000000001     47.592900000000000     46.889200000000002
C      52.538430000000005     49.549599999999998     50.249000000000009
C      53.682829999999996     49.229200000000006     49.415000000000006
C      54.064529999999991     48.067300000000003     48.546800000000005
C      53.008929999999992     47.209100000000007     48.125200000000007
C      53.367930000000001     46.054900000000004     47.227500000000006
C      52.133330000000001     45.674499999999995     46.674999999999997
C      47.897930000000002     50.043999999999997     49.090500000000006
C      42.557220000000001     49.444000000000003     47.790000000000006
C      41.849860000000007     48.375900000000001     46.997399999999999
C      42.990120000000005     47.474299999999999     46.617400000000004
C      49.719629999999995     44.603399999999993     44.905200000000008
C      46.260829999999999     48.678799999999995     50.890600000000006
H      49.928430000000006     50.192300000000003     50.422600000000003
H      44.700699999999998     51.155799999999999     48.930900000000008
H      47.230630000000005     44.665199999999999     45.640000000000001
H      44.864909999999995     45.543599999999998     46.006000000000000
H      52.083029999999994     50.360900000000001     50.903999999999996
H      54.722129999999993     49.685100000000006     49.294100000000000
H      55.093429999999998     48.039600000000007     48.223799999999997
H      54.384529999999998     45.884699999999995     46.946500000000000
H      52.445430000000002     44.991100000000003     45.813500000000005
H      42.235749999999996     50.275900000000007     48.249300000000005
H      40.906570000000002     48.077399999999997     47.003900000000002
H      43.249219999999994     46.417900000000003     46.259500000000003
H      45.629559999999998     48.993499999999997     51.747399999999999
H      47.220829999999992     48.864900000000006     51.449399999999997
H      45.845550000000003     47.622799999999998     50.490300000000005
H      48.747029999999995     52.266199999999998     49.024600000000007
O      49.685029999999998     43.733800000000002     44.252600000000001
O      47.872029999999995     51.555300000000003     49.238399999999999
