5

C      48.130694999999989     47.890049999999988     48.205199999999998
H      48.822945000000004     47.188150000000000     48.371000000000009
H      47.177054999999996     48.013949999999994     48.751300000000001
H      47.534885000000003     47.865649999999995     47.248699999999999
H      48.611075000000000     48.811850000000000     47.870000000000005
