5

C      47.711900000000000     47.913699999999999     48.072049999999990
H      47.261000000000003     47.577699999999993     47.121949999999998
H      47.464800000000004     46.995000000000005     48.878050000000002
H      48.738999999999997     47.878799999999998     47.806249999999991
H      47.269500000000001     49.004999999999995     48.010649999999998
