56

C      47.915299999999995     47.939200000000000     49.249350000000000
C      47.722299999999997     49.167199999999994     48.562049999999999
C      49.771099999999990     45.811400000000006     45.378250000000008
C      48.101500000000001     47.826300000000003     45.352450000000005
C      48.992500000000007     47.002899999999997     48.720849999999999
C      48.272999999999996     49.488600000000005     47.243750000000006
C      50.113000000000000     45.948000000000008     46.712750000000000
C      47.222000000000001     48.642300000000006     44.458349999999996
C      49.405700000000003     47.033100000000005     47.376050000000006
C      48.640700000000010     48.203999999999994     46.517449999999997
C      47.414099999999998     47.694199999999995     50.712550000000007
C      46.750300000000003     48.738000000000000     51.389449999999997
C      46.610100000000003     50.005200000000002     50.710549999999998
C      47.123199999999997     50.399500000000003     49.395350000000008
C      48.692999999999998     46.572000000000003     44.847850000000008
C      45.652400000000000     49.533199999999994     46.344450000000009
C      44.818500000000000     49.364500000000007     45.078249999999997
C      46.137099999999997     49.375000000000000     45.185950000000005
C      47.253099999999996     46.291499999999999     51.287450000000007
C      46.220399999999998     46.167000000000002     52.212550000000007
C      45.457599999999999     48.389300000000006     52.015450000000001
C      49.316699999999997     45.830300000000008     49.892949999999999
C      48.149000000000001     45.289500000000004     50.682749999999999
C      48.259900000000002     50.887799999999999     46.735150000000004
C      47.597299999999997     51.958300000000008     47.669750000000008
C      47.167499999999997     51.788600000000002     49.102550000000008
C      50.668799999999990     45.082899999999995     44.552149999999997
C      48.445099999999996     43.899200000000008     51.513950000000008
C      46.912199999999999     47.947199999999995     43.020849999999996
C      48.643200000000007     49.674199999999999     52.595950000000002
C      49.798699999999997     50.329299999999989     52.359449999999995
H      47.749200000000002     47.355100000000007     42.606750000000005
H      46.363799999999998     50.769300000000001     51.564750000000004
H      48.341899999999995     46.317499999999995     43.824150000000003
H      44.929000000000002     49.026899999999998     47.069350000000000
H      45.027999999999999     49.533799999999999     43.966450000000009
H      46.005000000000003     45.170699999999997     52.687250000000006
H      44.791800000000002     49.322900000000004     51.872050000000002
H      49.914299999999997     45.035700000000006     49.490150000000000
H      50.010099999999994     46.466300000000004     50.683549999999997
H      47.309699999999999     45.110799999999998     49.882649999999998
H      48.555300000000003     50.937799999999996     45.680450000000008
H      47.605100000000000     53.032799999999995     47.424050000000008
H      46.886499999999998     52.719999999999999     49.734650000000002
H      47.791100000000000     42.967200000000005     51.499449999999996
H      49.400399999999998     43.463400000000007     50.948450000000008
H      48.432099999999998     44.031800000000004     52.625250000000008
H      45.909900000000000     47.603400000000008     42.903149999999997
H      46.960599999999999     48.860799999999998     42.494150000000005
H      50.152900000000002     50.907899999999998     53.061750000000004
H      50.667299999999997     49.956299999999999     51.738349999999997
H      44.567200000000000     47.108800000000002     53.505849999999995
H      50.824399999999997     45.387200000000007     47.073650000000001
N      45.329500000000003     47.161400000000000     52.634550000000004
O      51.432800000000000     44.492100000000008     43.918450000000007
O      47.761600000000001     48.897199999999998     52.834350000000001
