49

C      49.418614999999988     46.538799999999995     48.535149999999994
C      48.172359999999998     45.926699999999997     48.783349999999999
C      49.091404999999995     42.922599999999989     47.304549999999999
C      50.617064999999997     45.667499999999990     48.758049999999997
C      47.917939000000004     44.431399999999996     48.924349999999990
C      49.006964999999994     43.393999999999991     48.486150000000002
C      46.837434999999985     43.956699999999998     50.053950000000000
C      50.406054999999995     43.889199999999988     49.131549999999997
C      47.943292999999997     43.933399999999992     47.585149999999999
C      49.592714999999998     48.048599999999993     48.093449999999997
C      48.675121000000004     49.230300000000000     48.047150000000002
C      46.877134999999996     47.728499999999997     47.835450000000002
C      46.843135000000004     46.552299999999988     48.252249999999997
C      51.563825000000008     46.610799999999983     48.156349999999996
C      50.933215000000004     47.817999999999984     47.835850000000001
C      50.968864999999994     42.878399999999999     48.482750000000003
C      46.734435000000019     42.622499999999988     50.366549999999989
C      45.810535000000002     53.296299999999988     45.731850000000001
C      49.175124999999994     50.414799999999985     47.010950000000001
C      48.444079000000002     52.307199999999995     48.806249999999991
C      49.035804999999996     51.843099999999993     47.449050000000000
C      46.265235000000004     52.669299999999993     47.233849999999997
C      47.598134999999999     52.267699999999991     47.496650000000002
C      45.392234999999985     51.899099999999990     46.233150000000002
C      45.257934999999989     53.032599999999988     48.340649999999997
C      44.286335000000022     51.444199999999995     47.108249999999998
C      44.109634999999983     52.333299999999994     48.245550000000001
H      50.465164999999999     43.704599999999999     50.165450000000000
H      49.921665000000004     42.811999999999998     46.494549999999997
H      46.246735000000029     44.483799999999988     50.668750000000003
H      48.546419000000000     49.407100000000000     49.121249999999996
H      46.075634999999991     45.844799999999992     48.114750000000001
H      52.646765000000002     46.457499999999996     48.061549999999997
H      51.686134999999993     48.611699999999985     47.708050000000000
H      46.237135000000009     42.487399999999994     51.216549999999998
H      47.456734999999995     41.899799999999999     49.936949999999996
H      46.467735000000033     53.374899999999982     44.783450000000002
H      45.225235000000012     54.100200000000001     46.094149999999999
H      50.078725000000006     50.203599999999994     46.885550000000002
H      48.815415000000002     50.216299999999990     46.015450000000001
H      49.104155000000006     53.201399999999992     48.959149999999994
H      48.121362000000005     52.469499999999982     49.777050000000003
H      49.615195000000000     52.615299999999991     47.092349999999996
H      45.754235000000008     51.028999999999996     45.670250000000003
H      45.223534999999998     54.038999999999987     48.809849999999997
H      43.848435000000009     50.458399999999983     47.181849999999997
H      43.353234999999998     52.443799999999982     48.995649999999998
O      51.718975000000000     42.136600000000001     47.925950000000000
O      47.203834999999998     48.810799999999986     47.456649999999996
