22

C      48.725499999999990     48.180949999999989     45.178569999999986
C      47.736300000000000     46.926649999999995     45.483939999999997
C      49.162300000000002     48.729050000000001     46.540970000000002
C      46.785499999999999     47.163649999999990     46.601349999999996
C      48.554400000000001     48.405549999999991     47.891049999999993
C      47.212399999999995     47.800349999999995     47.852959999999996
C      49.103699999999996     49.034549999999996     49.045989999999989
C      46.787599999999998     47.195650000000001     49.135349999999988
C      48.414800000000000     48.809049999999999     50.322759999999988
C      47.369399999999999     47.872549999999990     50.301540000000003
H      49.884599999999999     47.729950000000002     44.924650000000000
H      48.245699999999999     49.077349999999996     44.788109999999996
H      48.195799999999998     46.135350000000003     46.283839999999998
H      47.123899999999999     46.222149999999999     44.673559999999995
H      50.069599999999994     48.275349999999989     46.573239999999998
H      49.235100000000003     49.864649999999997     46.444839999999999
H      46.205199999999998     46.294249999999991     46.719840000000005
H      45.965599999999995     47.842649999999992     45.999649999999995
H      50.264099999999999     49.242750000000001     48.853909999999999
H      45.735900000000001     46.906549999999996     49.452009999999987
H      48.826499999999996     48.992249999999999     51.326440000000005
H      46.808099999999996     47.765450000000001     51.137039999999999
