84

C      47.940549999999995     45.638369999999995     45.089529999999989
C      47.931449999999998     44.419870000000003     45.891930000000002
C      44.601749999999996     42.045079999999999     44.272379999999998
C      47.033249999999995     45.422860000000000     44.000689999999999
C      46.901949999999999     43.460680000000004     45.549329999999998
C      45.340150000000001     41.246200000000002     45.047529999999995
C      45.233649999999997     43.257849999999998     43.642080000000000
C      46.576250000000002     41.836860000000001     45.652630000000002
C      46.271149999999999     44.032029999999999     44.352759999999996
C      48.832249999999995     46.740119999999997     45.076929999999997
C      50.532849999999996     48.416040000000002     45.697629999999997
C      49.539949999999997     47.307459999999999     46.179829999999995
C      49.186949999999996     44.230229999999999     46.874229999999997
C      48.983549999999994     47.353000000000002     43.673289999999994
C      49.742149999999995     48.535739999999997     43.342250000000000
C      50.726050000000001     48.817439999999998     44.382199999999997
C      50.353350000000006     48.227040000000002     47.056029999999993
C      46.461449999999999     46.474429999999998     43.081719999999997
C      47.873249999999999     47.028759999999998     42.621150000000000
C      45.098649999999999     39.896419999999999     45.440529999999995
C      46.755049999999997     48.102539999999998     42.592860000000002
C      43.866250000000001     39.506599999999999     46.427129999999998
C      46.071950000000001     41.760660000000001     47.176230000000004
C      48.131650000000008     46.435279999999999     41.219439999999999
C      50.942750000000004     48.217739999999999     48.478029999999997
C      50.391549999999995     53.058240000000005     50.626429999999999
C      50.974550000000001     54.439940000000000     49.941929999999999
C      50.083349999999996     52.368740000000003     45.993330000000000
C      50.212849999999996     53.666240000000009     46.394130000000004
C      50.365249999999989     51.803440000000002     49.841729999999998
C      51.220749999999995     54.504539999999999     48.601430000000001
C      50.178849999999997     51.349539999999998     47.140029999999996
C      51.980750000000000     55.598540000000000     47.721530000000001
C      50.342749999999995     52.044840000000001     48.343429999999998
C      50.498149999999995     53.488740000000000     47.814229999999995
C      49.939850000000007     53.192340000000009     52.057130000000001
C      50.127250000000004     54.297140000000006     52.809129999999996
C      50.818950000000001     55.413840000000000     52.259230000000002
C      51.307649999999995     55.520140000000005     50.880229999999997
C      50.258949999999999     49.463439999999999     49.245130000000003
C      51.005150000000000     50.335540000000002     49.920229999999997
C      49.032249999999991     52.298040000000000     52.739530000000002
C      50.125549999999997     54.148239999999994     54.294929999999994
C      50.241650000000007     52.077040000000004     44.424390000000002
H      50.013050000000007     44.745060000000002     46.478930000000005
H      48.778950000000009     44.797449999999998     47.702529999999996
H      50.159849999999992     53.017140000000005     43.953429999999997
H      43.520249999999997     41.775520000000000     43.592909999999996
H      47.373349999999995     41.236010000000000     45.508030000000005
H      45.121849999999995     43.479500000000002     42.677529999999997
H      49.430850000000000     43.182350000000000     46.936729999999997
H      49.998249999999999     48.944340000000004     42.332400000000000
H      51.521650000000001     49.620840000000008     44.463189999999997
H      45.303649999999998     46.360099999999996     42.541860000000000
H      51.100249999999996     47.138020000000004     49.092630000000000
H      45.099249999999998     39.236600000000003     44.574230000000000
H      46.006450000000001     39.382800000000003     45.906030000000001
H      46.620649999999998     48.385839999999995     41.554850000000002
H      47.002649999999996     48.828539999999997     43.266639999999995
H      44.354849999999999     38.760060000000003     47.144729999999996
H      43.104250000000000     40.312339999999999     46.426729999999992
H      43.381450000000001     38.827320000000000     45.821030000000000
H      45.657849999999996     41.114660000000001     47.878630000000001
H      46.950550000000000     41.824570000000001     47.692630000000008
H      45.183450000000001     42.475140000000003     47.261429999999990
H      47.333950000000002     46.142679999999991     40.686199999999999
H      48.770150000000001     45.384889999999999     41.193669999999997
H      48.881250000000001     47.207490000000000     40.597769999999997
H      51.931849999999997     48.657240000000002     48.485329999999990
H      51.954549999999998     57.239939999999997     46.665329999999997
H      50.632849999999998     54.469740000000002     45.841729999999998
H      52.895750000000000     55.746739999999996     48.235929999999996
H      49.799549999999996     50.458539999999992     47.014730000000000
H      50.971050000000005     56.161040000000000     53.053730000000002
H      51.678350000000002     56.625840000000004     50.561929999999990
H      49.401550000000000     50.006140000000009     48.455730000000003
H      49.712150000000001     48.755040000000001     49.918729999999996
H      50.794349999999994     49.521039999999992     50.847229999999996
H      52.002549999999999     50.393239999999999     49.547529999999995
H      51.355249999999998     51.731940000000002     44.336860000000001
H      49.476150000000004     51.465940000000003     44.511530000000000
O      48.118249999999996     51.657440000000001     52.875029999999995
O      50.000150000000005     53.917940000000009     55.402230000000003
O      51.748249999999999     56.294540000000005     46.647629999999992
