22

C      47.972849999999994     48.765999999999998     45.979849999999999
C      49.422049999999999     47.978100000000005     46.265649999999994
C      47.994749999999989     49.693500000000000     47.352850000000004
C      49.867349999999995     47.323800000000006     47.455550000000002
C      47.714449999999999     48.661100000000005     48.463449999999995
C      48.589749999999995     47.416800000000002     48.240150000000000
C      46.728149999999999     48.688500000000005     49.475049999999996
C      47.211649999999999     46.360600000000005     50.010549999999995
C      46.407249999999998     47.495300000000000     50.333950000000002
C      48.476250000000000     46.385600000000004     49.258650000000003
H      48.112649999999995     49.311000000000000     44.923649999999995
H      47.162949999999995     48.143900000000002     46.085850000000008
H      50.250549999999997     48.695900000000002     46.044349999999994
H      49.443149999999996     47.334700000000005     45.392449999999997
H      47.318950000000001     50.489699999999999     47.429349999999999
H      49.074849999999991     50.009399999999999     47.204449999999994
H      50.268650000000001     46.332300000000004     47.306950000000001
H      50.515350000000005     48.072200000000002     48.192449999999994
H      45.956350000000000     49.528400000000005     49.527749999999997
H      46.985050000000001     45.510300000000001     50.723550000000003
H      45.484649999999995     47.533300000000004     51.076350000000005
H      48.998149999999995     45.539000000000001     49.324050000000000
