5

C      48.115849999999995     48.219799999999992     47.828099999999992
H      48.779449999999997     47.929700000000004     48.721399999999996
H      48.738649999999993     48.904999999999994     47.278600000000004
H      47.700549999999993     47.095000000000006     47.387200000000000
H      47.220550000000003     48.601499999999994     48.182700000000004
