20

C      50.558499999999995     47.711399999999998     47.443849999999991
C      47.121600000000001     48.794599999999996     45.716250000000002
C      50.789899999999989     47.303400000000003     48.845450000000000
C      45.581099999999992     48.648000000000003     47.909050000000008
C      48.218699999999998     48.412799999999997     47.834249999999997
C      46.807000000000002     48.478299999999997     47.092050000000000
C      49.098900000000000     47.529900000000005     47.101950000000002
C      45.795099999999991     48.625099999999996     49.292050000000003
C      48.390299999999996     48.757299999999994     49.185649999999995
C      47.005399999999995     48.819099999999999     49.861149999999995
H      51.267799999999994     48.491199999999999     46.959850000000003
H      46.508600000000001     49.188499999999998     45.054349999999999
H      48.260599999999997     48.992399999999996     45.517650000000003
H      49.728999999999999     46.811500000000002     48.936149999999998
H      51.351900000000001     47.026800000000001     49.793250000000000
H      44.648099999999999     49.029400000000003     47.497749999999996
H      48.960299999999989     47.265400000000007     46.104650000000007
H      44.909899999999993     48.717099999999995     49.806449999999998
H      49.280299999999997     48.580700000000000     49.841750000000005
H      46.743399999999994     48.800199999999997     50.945650000000001
