16

C      46.974449999999990     46.319299999999991     49.199050000000000
C      47.460749999999997     45.948299999999996     47.696349999999995
C      48.149650000000001     47.433800000000005     47.573750000000004
C      47.796649999999993     47.726199999999999     48.916150000000002
C      48.870750000000001     48.244399999999999     46.714950000000002
C      48.197850000000003     49.061799999999998     49.348049999999986
C      49.342149999999997     49.546799999999990     47.174949999999995
C      48.993649999999995     49.973900000000000     48.542450000000002
H      46.044249999999998     46.478699999999989     49.363649999999993
H      47.269250000000000     46.090699999999998     50.326449999999994
H      47.816150000000000     45.007300000000001     47.100650000000002
H      46.416750000000000     45.980499999999999     47.449650000000005
H      48.887450000000001     47.860200000000006     45.673550000000006
H      48.017649999999996     49.497699999999995     50.316349999999986
H      49.955750000000002     50.194199999999995     46.518850000000000
H      49.236950000000000     50.992699999999999     48.978849999999994
