22

C      49.608399999999989     48.252920000000003     46.825149999999994
C      49.870300000000007     49.491080000000011     47.572150000000001
C      46.506900000000002     49.440759999999997     47.718950000000000
C      48.827100000000002     49.865859999999998     48.741350000000004
C      48.313299999999998     47.834490000000002     47.647050000000000
C      47.606099999999998     48.858919999999998     48.474049999999998
C      47.961199999999998     46.413700000000006     47.935650000000003
C      46.455700000000000     48.632919999999999     49.513050000000000
C      46.686000000000000     46.217939999999999     48.715550000000000
C      46.067900000000002     47.169820000000001     49.535249999999998
H      50.574399999999990     47.681380000000004     46.856249999999996
H      49.684799999999996     48.275459999999995     45.743450000000003
H      50.073200000000007     50.457400000000007     47.093550000000000
H      50.834299999999999     49.390070000000009     48.264050000000005
H      45.562899999999999     48.962760000000003     47.902549999999998
H      46.382700000000000     49.982250000000008     46.673849999999995
H      49.617100000000001     49.956789999999998     50.014949999999992
H      48.491199999999999     50.801779999999994     48.644849999999998
H      48.604199999999999     45.648280000000000     47.562350000000002
H      45.813600000000001     49.313389999999998     50.113849999999992
H      46.717700000000001     45.198220000000006     48.857250000000001
H      45.165700000000001     47.024840000000012     50.256549999999997
