33

C      48.346249999999998     48.967324999999988     47.809449999999991
C      48.307249999999996     50.287215000000003     46.936750000000004
C      49.441350000000000     45.703424999999996     44.436850000000000
C      48.298550000000006     47.455534999999998     47.366650000000000
C      48.872850000000000     49.462144999999992     44.452749999999995
C      49.135450000000006     45.643135000000001     45.857349999999997
C      49.529650000000004     46.984014999999999     43.895750000000000
C      48.853049999999996     47.174925000000002     46.061750000000004
C      49.071250000000006     48.024114999999995     44.836449999999999
C      48.156250000000000     49.259065000000007     49.161649999999995
C      48.030150000000006     50.594414999999998     49.328850000000003
C      48.337350000000001     51.295414999999991     48.043650000000000
C      48.507850000000005     50.434314999999998     45.520249999999997
C      47.631850000000000     48.238434999999996     50.126249999999999
C      47.502049999999997     49.476705000000010     52.410749999999993
C      47.005150000000000     48.587644999999995     51.468950000000000
C      47.478250000000003     46.941445000000002     49.552349999999990
C      47.845550000000003     46.396505000000005     48.257750000000001
C      48.749749999999992     44.577974999999995     46.685249999999996
H      47.645949999999999     44.329345000000004     48.369950000000003
H      46.898949999999999     52.139915000000002     50.016049999999993
H      47.968050000000005     51.738214999999997     51.606949999999998
H      49.520949999999999     44.818794999999994     43.814750000000004
H      49.191449999999989     49.997315000000000     43.601349999999996
H      49.896649999999994     47.286185000000003     42.749049999999997
H      48.359949999999998     52.376715000000004     47.979249999999993
H      48.703350000000000     51.464115000000007     44.981549999999999
H      46.103350000000006     48.003185000000002     51.745849999999990
H      47.088949999999997     46.254255000000001     50.310850000000002
H      48.633550000000000     43.623284999999996     46.169349999999994
N      47.670050000000003     51.423514999999995     50.617949999999993
N      48.190449999999998     45.018495000000001     47.906049999999993
O      48.140050000000002     49.957115000000002     53.250950000000003
