10

C      47.674999999999990     49.038499999999999     47.049601999999979
C      47.711200000000005     46.409800000000004     48.257902000000001
C      47.908900000000003     47.907200000000003     47.809101999999996
C      48.295000000000002     47.570300000000003     49.297302000000002
H      47.526200000000003     50.211399999999998     47.398101999999994
H      47.535899999999998     49.121700000000004     45.880201999999997
H      48.207700000000003     45.788600000000002     47.465001999999998
H      46.830799999999996     46.176000000000002     48.727301999999995
H      48.081100000000006     48.237800000000007     50.119798000000003
H      49.169200000000004     46.955799999999996     49.496402000000003
