5

C      48.071934999999989     47.907099999999993     48.084699999999984
H      48.633024999999996     48.384499999999989     47.231000000000002
H      47.128515000000000     47.423999999999992     47.821899999999992
H      48.871485000000000     47.228999999999999     48.354399999999991
H      47.979374999999997     48.771000000000001     48.768999999999998
