22

C      45.447399999999995     48.243799999999993     47.456099999999999
C      45.497799999999998     47.640400000000000     48.870199999999997
C      46.990400000000001     48.251599999999996     46.726799999999997
C      46.867500000000007     47.795299999999997     49.925600000000003
C      48.049300000000002     47.428799999999995     47.468400000000003
C      47.948900000000009     47.506499999999988     48.886300000000006
C      49.397100000000002     47.065799999999996     46.870800000000003
C      49.125000000000000     47.250499999999988     49.689500000000010
C      50.406099999999995     46.915499999999994     47.903599999999997
C      50.256799999999998     46.994699999999995     49.372399999999999
H      44.683300000000003     47.613399999999999     46.558999999999997
H      44.887999999999998     49.275199999999984     47.740300000000005
H      45.346400000000003     46.438800000000001     48.793199999999999
H      44.675100000000000     47.832699999999988     49.445000000000007
H      47.149400000000000     49.561199999999999     46.931600000000003
H      47.214900000000000     48.154899999999998     45.381799999999998
H      47.279200000000003     47.076899999999995     50.480300000000000
H      46.961699999999993     48.609999999999985     50.468900000000005
H      49.724099999999993     47.227899999999991     45.832300000000004
H      48.966900000000003     47.029899999999998     50.618200000000002
H      51.324900000000000     46.829799999999992     47.621600000000001
H      51.128799999999998     46.957699999999988     50.062700000000007
