22

C      46.518014999999991     46.766299999999994     46.429249999999996
C      47.872144000000006     46.293599999999998     46.144750000000002
C      46.286014999999999     48.350099999999998     46.906150000000004
C      48.951155000000007     47.488299999999995     46.296849999999999
C      47.385197400000003     48.767699999999998     47.981050000000003
C      48.684175000000003     48.226900000000001     47.675149999999995
C      47.184615000000001     49.758000000000003     49.002850000000002
C      49.765825000000000     48.696300000000008     48.571449999999992
C      48.284981000000009     49.894899999999993     49.921750000000003
C      49.560385000000004     49.296900000000001     49.940750000000001
H      45.832214999999998     45.982199999999999     46.773050000000005
H      46.240715000000002     47.140799999999999     45.326750000000004
H      47.910960000000010     45.948399999999999     45.129150000000003
H      48.368215000000006     45.430399999999999     47.010050000000000
H      45.289814999999997     48.320700000000002     47.479350000000004
H      46.028314999999999     48.954499999999996     46.096850000000003
H      49.843565000000005     46.921300000000002     46.106949999999998
H      48.876725000000015     48.210499999999996     45.362150000000000
H      46.276615000000000     50.180800000000005     49.194250000000004
H      50.710185000000003     48.213200000000001     48.750550000000004
H      48.229956000000008     50.569600000000001     50.870849999999997
H      50.471625000000010     49.448900000000009     50.577350000000003
