87

C      49.423811999999998     49.088459999999998     50.813524999999984
C      49.230180000000040     48.806860000000007     52.296464999999998
C      44.990880000000018     50.684560000000012     50.336415000000002
C      48.436379999999993     49.531940000000006     49.778944999999993
C      47.702280000000009     48.663680000000006     52.618764999999996
C      46.028780000000005     50.458410000000008     49.362345000000005
C      45.282379999999996     49.906320000000001     51.497185000000002
C      47.069480000000020     49.634910000000005     50.163174999999995
C      46.594980000000000     49.295070000000003     51.526534999999996
C      50.654960000000010     48.546060000000004     50.061584999999994
C      51.315160000000013     47.290280000000010     50.500865000000005
C      49.859572000000007     47.511970000000005     52.795845000000000
C      50.467590000000008     48.915750000000010     48.596054999999993
C      51.334620000000008     48.103360000000009     47.787644999999998
C      52.167190000000005     46.931250000000006     48.091475000000003
C      52.231720000000003     46.716930000000005     49.439444999999992
C      49.333910700000004     49.783480000000004     48.555724999999995
C      48.392879999999998     50.249730000000007     47.565754999999996
C      47.165079999999996     50.271960000000007     46.761144999999999
C      46.261980000000008     51.137200000000014     48.010044999999991
C      47.239080000000023     51.204020000000007     45.616105000000005
C      46.216880000000025     49.169559999999997     46.663111000000001
C      49.555469000000009     51.226380000000006     47.983924999999999
C      44.601479999999988     49.963440000000006     52.789524999999998
C      48.632279999999994     49.890990000000009     53.141575000000003
C      48.469280000000019     45.898130000000009     45.348205000000007
C      47.876180000000026     44.510000000000012     43.458905000000001
C      45.548380000000023     46.017570000000006     46.227505000000008
C      45.437980000000003     46.099540000000005     47.704345000000004
C      46.093979999999995     46.555560000000007     43.900205000000000
C      47.961180000000034     45.651446000000007     46.599131999999997
C      45.695980000000041     46.992110000000004     45.067505000000025
C      46.440280000000023     45.148494000000007     48.451014999999998
C      47.666479999999993     45.809923000000005     44.181504999999987
C      46.491280000000032     45.339794000000005     47.106171000000003
C      48.479680000000023     45.972430000000010     42.931804999999997
C      43.471479999999993     47.925500000000007     43.924105000000012
C      45.001480000000029     47.526250000000005     43.953305000000000
C      48.985880000000030     45.762907000000006     47.834634999999992
C      48.744980000000005     45.845430000000007     49.222705000000005
C      47.419480000000000     45.323943000000007     49.716915000000000
C      49.820580000000014     44.984695000000009     50.094915000000000
C      47.197180000000017     46.297270000000005     50.835284999999999
C      46.779180000000018     48.161400000000008     45.406405000000021
H      44.130880000000012     51.195860000000003     50.040684999999996
H      47.351480000000002     47.924470000000007     53.238894999999999
H      51.319730000000000     48.514480000000006     46.830752000000004
H      52.870420000000003     46.536690000000007     47.368504000000001
H      52.921420000000005     46.088550000000005     50.028594999999996
H      46.998280000000001     51.893870000000014     48.081485000000001
H      45.271580000000021     51.427560000000007     47.689084999999992
H      47.496580000000002     52.182700000000004     46.043105000000011
H      46.238980000000012     51.364160000000005     45.143704999999997
H      47.992079999999994     51.042840000000005     44.911804999999987
H      46.079080000000012     48.939390000000010     47.709834999999998
H      45.085380000000001     49.632640000000016     46.371305000000007
H      49.183180000000014     51.864150000000016     48.781604999999999
H      50.295137000000004     51.362660000000012     47.210796000000002
H      44.609980000000014     50.810680000000012     53.595964999999993
H      45.155780000000014     49.371290000000009     53.338314999999994
H      43.547980000000017     49.602970000000006     52.666564999999991
H      50.440419999999996     47.746540000000010     53.533765000000002
H      47.950580000000024     50.018290000000000     54.056995000000001
H      48.505280000000020     50.829570000000011     52.495414999999994
H      49.518712000000015     46.004120000000007     45.339804999999984
H      46.924680000000009     44.194599999999987     43.165705000000003
H      49.252079999999999     46.479110000000006     43.345204999999993
H      48.051980000000022     46.638680000000008     41.943004999999999
H      43.227679999999999     48.081170000000007     44.941904999999991
H      43.504880000000036     48.712130000000009     43.291705000000007
H      43.078579999999995     47.157000000000004     43.244605000000007
H      49.623516000000002     46.690170000000009     47.624974999999992
H      49.645450000000004     44.919492700000006     47.744534999999999
H      48.841280000000005     46.805520000000008     49.704324999999997
H      47.454580000000014     44.286100000000019     50.184545000000000
H      49.783555000000007     44.919896700000010     51.199584999999999
H      50.844450000000016     45.253892000000008     49.761835000000005
H      49.492266000000008     44.145600000000023     49.441704999999999
H      46.125880000000009     46.239780000000010     51.409565000000001
H      46.645480000000035     47.272020000000005     50.591224999999994
H      48.226080000000003     46.446080000000009     51.397494999999992
H      47.868580000000030     47.843550000000008     45.601405000000014
H      46.934880000000007     48.888690000000004     44.643105000000020
H      48.458780000000012     43.817299999999996     44.284405000000035
H      51.514060000000008     45.822796000000004     51.870114999999998
H      49.437524000000003     46.653880000000008     53.493884999999992
N      51.045310000000008     46.793780000000005     51.705115000000006
