23

C      46.645749999999992     51.882749999999994     47.164399999999986
C      47.133550000000007     50.711250000000000     47.880699999999997
C      47.310449999999996     48.372250000000001     49.880099999999992
C      49.316650000000003     44.503850000000000     46.049699999999994
C      48.349150000000002     46.964550000000003     47.111199999999997
C      49.084349999999993     45.835750000000004     46.595899999999993
C      49.798049999999996     47.090249999999997     46.643199999999993
C      46.453349999999993     48.256650000000000     48.462799999999994
C      46.221449999999997     49.495750000000001     47.700399999999995
C      47.136149999999994     47.810249999999996     47.211899999999993
H      47.558649999999993     52.332949999999997     46.744499999999995
H      45.700049999999997     51.844750000000005     46.618299999999991
H      49.312649999999998     43.667050000000003     46.759899999999995
H      48.126049999999999     50.696550000000002     48.288499999999992
H      48.144449999999999     49.241550000000004     49.649799999999992
H      47.668749999999996     47.424149999999997     49.839300000000001
H      50.133450000000003     44.161749999999998     45.494599999999991
H      48.460749999999997     44.249150000000000     45.143499999999996
H      50.658250000000002     47.424650000000000     45.766799999999996
H      45.846049999999998     47.384850000000000     48.634399999999992
H      45.341749999999998     49.726550000000003     46.884299999999996
H      46.737749999999998     48.150850000000005     46.200499999999991
H      46.911449999999995     48.516950000000001     50.856500000000004
