22

C      49.102049999999991     45.657774999999994     47.258803999999991
C      48.628949999999996     47.012174999999999     46.351315000000014
C      48.850149999999992     45.913475000000005     48.845754999999997
C      46.462749999999993     48.565775000000002     47.190548999999997
C      48.281749999999995     47.415075000000002     48.813424999999995
C      48.025950000000002     47.875475000000009     47.415316999999988
C      48.045349999999992     48.125975000000011     49.873184999999992
C      47.744749999999989     49.342075000000008     47.135366999999995
C      48.172849999999990     49.579175000000006     49.775954999999996
C      48.000250000000001     50.112675000000010     48.456134999999996
H      50.051549999999999     45.286475000000003     46.906232999999993
H      48.394550000000002     44.837524999999999     46.870224999999998
H      49.674749999999996     47.354975000000003     45.947815000000006
H      48.734649999999995     46.944675000000004     45.192615000000004
H      48.165950000000002     45.353575000000006     49.381654999999995
H      49.643049999999995     46.005275000000005     49.604214999999996
H      45.998550000000002     48.342775000000003     46.247915000000013
H      45.948450000000001     49.191074999999998     47.886784999999989
H      48.148449999999990     47.578975000000000     50.807384999999996
H      47.840550000000000     49.873375000000003     46.231114999999988
H      47.921749999999996     50.205875000000006     50.747724999999996
H      47.964049999999993     51.162475000000001     48.577134999999998
