6

C      47.604999999999990     48.287499999999994     47.910749999999993
C      48.658799999999999     47.526400000000010     48.232150000000004
H      49.493800000000007     48.147000000000006     48.287549999999996
H      46.506199999999993     47.881399999999999     47.972650000000002
H      47.689200000000000     49.443500000000000     47.546949999999995
H      48.687200000000004     46.556500000000000     48.453050000000005
