23

C      47.388700000000000     49.817849999999993     48.016049999999993
C      46.646600000000007     49.523949999999992     46.715749999999993
C      48.962600000000009     48.998449999999998     47.845649999999999
C      46.094800000000006     48.197349999999993     46.942850000000000
C      48.833799999999997     47.575849999999996     47.975450000000002
C      47.399199999999993     47.095250000000000     47.516749999999995
C      49.376400000000004     46.642149999999994     48.839849999999991
C      48.694100000000006     46.919849999999990     46.474550000000001
C      48.345500000000001     45.644249999999992     49.298150000000000
C      47.163200000000003     45.841749999999998     48.501649999999991
H      49.507500000000007     46.214549999999996     46.122949999999996
H      47.322000000000003     50.833250000000000     48.393549999999998
H      46.826800000000006     49.413750000000000     48.949750000000002
H      47.195599999999999     49.735750000000003     45.860149999999997
H      45.856099999999998     50.134250000000002     46.459349999999993
H      49.796000000000006     49.112349999999999     47.109549999999992
H      49.631700000000009     49.421249999999993     48.639850000000003
H      45.599600000000009     48.718950000000000     47.817249999999994
H      45.823900000000009     47.762449999999994     46.003750000000004
H      50.400399999999991     46.678149999999995     49.127350000000000
H      48.601500000000001     47.662950000000002     45.768650000000001
H      48.317700000000002     45.166750000000000     50.231349999999999
H      46.187800000000010     45.280250000000002     48.494750000000003
