5

C      47.878149999999991     48.284649999999999     47.816399999999994
H      47.543950000000002     46.963750000000005     47.834000000000003
H      48.793550000000003     48.490150000000000     47.144199999999998
H      48.115549999999992     48.423850000000002     48.855800000000002
H      47.206449999999997     49.036249999999995     47.574900000000000
