16

C      46.787349999999989     49.045349999999992     46.382599999999996
C      48.046049999999987     46.836849999999998     47.151400000000002
C      46.988549999999996     48.208849999999998     47.465600000000002
C      48.195449999999994     48.256749999999997     46.751000000000012
C      46.983049999999999     48.156350000000003     48.902200000000001
C      49.088249999999995     49.159649999999999     47.342300000000002
C      47.733550000000001     49.215649999999997     49.602100000000000
C      48.869449999999993     49.662250000000000     48.705899999999993
H      47.076949999999997     48.785449999999997     45.333300000000001
H      45.912450000000000     49.776749999999993     46.331600000000002
H      47.400449999999999     46.016949999999994     46.670000000000009
H      47.990349999999999     46.411450000000002     48.123200000000004
H      46.215149999999994     47.724550000000001     49.584700000000005
H      50.087550000000000     49.168049999999994     47.189100000000003
H      47.877550000000006     49.039649999999995     50.666699999999999
H      49.657749999999986     49.983050000000006     49.077500000000001
