21

C      47.649490000000000     48.237533499999998     46.153799999999983
C      46.288930000000008     48.001333499999994     45.861300000000000
C      50.076689999999999     47.259033499999994     48.201299999999989
C      46.265150000000006     48.753633499999999     47.138700000000000
C      47.674590000000009     47.147033499999999     49.153099999999995
C      47.010779999999997     48.366033499999993     48.422999999999988
C      49.210059999999999     47.007633500000004     49.296499999999995
C      45.775340000000000     48.700733500000005     49.105399999999989
C      46.748100000000008     46.801233500000002     50.204799999999992
C      45.578490000000002     47.606333499999998     50.066199999999995
H      48.151160000000004     47.251833499999996     46.330199999999991
H      48.060400000000001     48.339533499999995     45.172299999999993
H      46.089619999999996     47.045233500000002     46.036899999999989
H      46.182900000000004     49.970766500000003     46.893400000000000
H      51.179429999999996     47.335233499999994     48.419399999999996
H      49.580790000000007     47.218133500000000     47.319399999999987
H      45.876790000000000     48.591533500000004     45.041100000000000
H      49.407290000000003     46.889333499999999     50.385799999999989
H      44.820570000000004     49.175133499999994     48.653499999999994
H      46.978430000000003     46.029233499999997     50.958900000000000
H      44.863880000000009     47.552233499999993     50.850499999999997
