22

C      47.753849999999993     48.169499999999985     50.413349999999994
C      49.168250000000000     48.910200000000003     50.129149999999996
C      47.192750000000004     47.267899999999997     49.348950000000002
C      49.825450000000004     48.054400000000001     48.922150000000002
C      47.352150000000009     47.778899999999993     47.960650000000001
C      48.844149999999999     47.685699999999997     47.630849999999995
C      46.238550000000004     47.731600000000000     46.995649999999998
C      49.185550000000006     47.016700000000000     46.472949999999997
C      46.777250000000009     47.309799999999996     45.702649999999991
C      48.016649999999998     46.724399999999989     45.482150000000004
H      47.075450000000004     48.768099999999990     51.138750000000002
H      47.941350000000000     47.568699999999993     51.319249999999997
H      48.984850000000009     49.993000000000009     49.767849999999996
H      49.733150000000009     48.737099999999998     50.972249999999988
H      47.503749999999997     46.165700000000001     49.341049999999996
H      46.128749999999997     47.201700000000002     49.512649999999994
H      50.759749999999997     48.586600000000004     48.538449999999997
H      50.153149999999997     46.891899999999993     49.159850000000006
H      45.240250000000003     47.943100000000001     47.371449999999996
H      50.223550000000003     46.992999999999995     46.040949999999995
H      46.072650000000010     47.126499999999993     44.903549999999996
H      48.198450000000008     46.006999999999991     44.680750000000003
