35

C      47.702849999999998     48.172549999999994     46.986450000000005
C      46.718249999999998     49.217150000000004     46.956750000000000
C      47.889550000000000     47.882449999999999     49.504450000000006
C      49.022750000000002     46.164850000000001     47.974149999999995
C      46.024450000000002     49.483949999999993     48.281949999999995
C      47.973550000000003     47.406149999999997     50.800550000000001
C      46.706949999999992     49.350850000000001     50.931749999999994
C      48.327950000000001     47.324449999999999     48.234549999999999
C      46.874549999999999     49.151849999999996     49.489549999999994
C      48.659749999999988     47.950249999999997     45.890450000000001
C      48.455349999999996     48.580550000000002     44.496650000000002
C      47.619450000000001     49.752650000000003     44.624750000000006
C      46.740449999999996     49.885850000000005     45.749750000000006
C      49.933949999999996     47.262149999999998     46.008750000000006
C      50.952449999999999     47.398150000000001     45.118350000000007
C      49.408249999999995     48.551249999999996     43.268650000000008
C      50.689549999999997     48.108249999999998     43.950850000000003
C      47.311650000000000     48.208349999999996     51.660449999999997
C      46.664349999999999     48.134250000000002     53.141050000000007
C      45.161450000000002     48.687250000000006     47.406450000000007
H      45.661950000000004     50.510850000000005     48.432150000000007
H      48.622649999999993     46.555750000000003     50.902749999999997
H      45.740150000000000     49.814049999999995     51.158050000000003
H      47.565650000000005     50.658050000000003     44.066550000000007
H      46.072949999999992     50.883250000000004     46.005949999999999
H      50.193950000000001     46.473950000000002     46.659450000000007
H      51.886049999999997     46.818349999999995     45.377350000000007
H      51.377249999999989     48.485749999999996     43.138850000000005
H      45.822549999999993     47.487349999999999     53.040850000000006
H      46.359250000000003     49.306550000000001     53.602750000000000
H      47.440250000000006     47.508049999999997     53.769549999999995
H      45.248149999999995     47.432150000000000     47.547150000000002
H      44.113950000000003     49.004450000000006     47.562150000000003
O      49.306749999999994     49.090050000000005     42.230450000000005
O      49.476749999999996     45.116749999999996     48.011849999999995
