6

C      47.779199999999989     48.562550000000002     47.932599999999994
C      48.174500000000009     47.304150000000007     47.987799999999993
H      46.924999999999997     48.936449999999994     47.351100000000002
H      48.363100000000003     49.296149999999997     48.225099999999998
H      47.327100000000002     46.703850000000003     47.812600000000003
H      49.075000000000003     47.090950000000007     48.648899999999998
