22

C      45.644149999999996     47.992149999999988     46.835599999999999
C      45.690349999999995     48.785650000000004     48.309199999999997
C      46.597750000000005     46.831449999999997     47.117300000000007
C      46.512449999999987     48.292149999999992     49.429000000000009
C      48.050949999999986     47.038849999999996     47.830400000000004
C      47.925249999999991     47.857449999999993     49.008100000000006
C      49.293549999999996     46.643549999999998     47.182899999999997
C      49.071949999999987     48.635749999999987     49.389800000000001
C      50.506349999999998     47.298149999999993     47.746699999999997
C      50.393850000000000     48.141049999999993     48.906100000000002
H      44.628850000000000     47.535749999999993     46.522600000000004
H      46.135549999999995     48.613649999999993     45.896700000000003
H      44.732450000000000     48.652449999999988     48.776500000000006
H      45.875950000000003     49.963250000000002     48.036400000000008
H      46.260249999999999     46.252649999999996     47.904699999999998
H      46.571249999999992     46.107849999999992     46.408700000000003
H      46.548249999999996     49.021549999999998     50.103299999999997
H      45.952349999999996     47.326049999999995     49.739500000000000
H      49.525149999999996     46.036749999999998     46.068599999999996
H      49.018249999999995     49.696649999999991     49.632600000000004
H      51.371150000000000     46.908849999999994     46.983400000000010
H      51.280050000000003     48.433449999999993     49.355700000000006
