21

C      45.794599999999996     46.528699999999986     48.141999999999996
C      45.196299999999994     48.334200000000003     48.261200000000009
C      48.421099999999996     45.663899999999991     48.622199999999999
C      46.388999999999996     47.832199999999993     47.656500000000001
C      48.866299999999995     47.165699999999994     48.503000000000007
C      47.771799999999999     48.188699999999990     48.130700000000004
C      50.229799999999997     47.242399999999996     48.308500000000002
C      48.207399999999993     49.565899999999992     48.196199999999997
C      50.449600000000004     48.744399999999992     47.984900000000003
C      49.622299999999996     49.903500000000001     48.137100000000004
H      46.213799999999992     45.579599999999992     47.408000000000001
H      45.863100000000003     46.124900000000004     49.240700000000004
H      44.428200000000004     48.869499999999995     47.417200000000001
H      45.043300000000002     48.241499999999995     49.333800000000004
H      49.180800000000005     45.145999999999994     47.957000000000001
H      48.795599999999993     45.059800000000003     49.498100000000001
H      46.482399999999998     47.914099999999998     46.501899999999999
H      50.880700000000004     46.275900000000000     48.489200000000004
H      47.384699999999995     50.232700000000001     48.011100000000006
H      51.571799999999996     48.994899999999994     47.873300000000000
H      49.858800000000002     50.940199999999997     48.285999999999994
