222

C      46.037649999999992     49.550449999999998     51.214877500000000
C      52.066749999999999     45.029249999999998     48.719877499999996
C      51.951050000000002     43.705949999999994     49.526277499999992
C      51.347249999999995     45.401050000000005     47.378577500000006
C      53.625249999999994     46.942550000000004     45.735337500000000
C      50.729050000000001     42.956750000000007     49.717477500000001
C      52.382049999999992     46.743249999999996     46.677837500000010
C      52.667249999999996     45.787150000000004     47.847277500000004
C      51.293550000000003     43.554250000000003     50.908677500000010
C      55.833449999999999     46.837750000000007     44.991877500000001
C      56.683750000000003     48.072849999999995     44.555647500000006
C      49.364850000000004     42.504449999999999     49.125877500000001
C      53.143050000000002     42.788050000000005     49.549377500000006
C      53.583049999999993     47.089949999999995     44.231897500000002
C      54.990250000000003     46.921650000000007     43.807297500000004
C      57.307850000000002     46.923750000000005     45.139497500000004
C      58.495649999999998     46.089850000000006     45.501217500000010
C      50.138350000000003     44.299349999999997     46.922867500000009
C      51.348249999999993     47.961850000000005     46.417407500000010
C      55.098649999999999     46.730449999999998     46.242617500000009
C      44.911749999999998     49.083649999999999     47.113977500000004
C      46.175150000000002     48.569449999999996     47.797977500000002
C      42.161850000000001     47.146350000000005     49.202477500000001
C      42.731749999999998     46.049849999999999     50.102977499999994
C      43.535950000000000     48.715150000000001     47.528777500000004
C      45.978650000000002     47.965650000000004     49.151677500000005
C      40.733350000000002     47.554650000000002     48.998177499999997
C      44.051749999999998     46.255149999999993     50.302277500000002
C      43.384250000000002     47.756750000000004     48.700877500000004
C      44.616750000000003     47.310150000000000     49.508177500000002
C      45.014449999999997     49.721649999999997     45.746827499999995
C      46.230149999999995     49.918249999999993     45.012657500000003
C      47.274149999999992     49.331150000000001     45.856607500000010
C      47.464150000000004     48.508149999999993     47.118977500000000
C      40.442949999999996     48.527949999999997     48.021177499999993
C      42.379550000000002     43.510749999999994     50.915077500000010
C      42.930950000000003     43.613250000000001     52.021377500000000
C      41.993250000000003     44.740950000000005     50.263977500000010
C      42.765149999999998     49.249950000000005     46.320297500000009
C      43.109050000000003     50.398550000000000     43.842507500000011
C      43.520249999999997     49.841450000000002     45.256267500000007
C      46.899450000000002     46.710050000000003     49.139577500000001
C      48.782549999999993     47.817950000000003     47.460477500000010
C      49.364750000000001     48.287349999999996     48.754377500000004
C      41.499749999999999     50.580249999999999     43.770547499999992
C      48.378550000000004     46.879550000000002     48.636277500000006
C      49.756250000000001     47.646250000000002     46.257007500000000
C      46.419349999999994     45.450449999999996     48.551677499999997
C      39.710449999999994     52.656149999999997     40.294647500000011
C      38.407750000000000     54.374050000000004     47.060477500000005
C      39.548850000000002     51.658249999999995     41.311137500000001
C      38.533349999999999     52.920949999999998     46.847937500000000
C      39.388350000000003     54.012949999999996     40.677137500000001
C      38.676050000000004     55.526050000000005     46.141197500000004
C      39.164249999999996     51.955949999999987     42.655227500000009
C      38.774450000000002     52.512449999999994     45.485707500000004
C      39.117950000000000     55.782350000000001     42.226037500000004
C      39.159149999999997     56.109850000000002     43.639817499999992
C      39.046750000000003     54.296149999999997     42.053727500000008
C      38.880350000000000     55.163750000000000     44.728657500000011
C      39.090850000000003     53.259649999999993     43.126927499999994
C      38.928250000000006     53.685650000000003     44.518357500000008
C      38.622150000000005     50.829349999999998     43.544547499999993
C      39.227549999999994     51.308749999999989     44.983747500000007
C      39.626850000000005     55.164449999999995     39.543317500000001
C      39.433650000000000     56.602449999999990     39.913537500000004
C      38.421049999999994     56.600649999999995     40.995497499999999
C      38.895350000000001     57.626849999999997     38.925967499999999
C      40.883449999999996     51.223049999999994     44.904527500000000
C      37.211150000000004     58.209049999999991     38.742437500000008
C      39.244850000000000     55.227449999999997     37.840109500000011
C      36.967150000000004     51.015149999999998     43.631037500000005
C      55.275350000000003     47.873650000000005     53.236177499999997
C      52.137850000000000     45.428549999999994     54.242777500000003
C      54.113950000000003     46.978150000000007     53.089677499999993
C      53.338149999999999     44.195850000000000     56.528877499999993
C      56.275150000000004     47.482549999999996     53.923977500000007
C      55.140749999999997     45.752150000000007     56.924377500000006
C      56.176150000000000     46.634549999999997     56.190677500000007
C      53.575949999999992     45.816049999999997     53.949477500000000
C      54.574050000000000     44.890750000000004     55.943277499999994
C      56.096850000000003     46.230550000000001     54.651877499999998
C      55.056950000000001     45.039049999999996     54.517577500000002
C      52.938149999999993     46.953650000000003     54.220177500000005
C      56.710650000000001     45.014649999999996     54.034377500000005
C      51.722149999999992     45.125850000000007     52.733977499999995
C      53.053649999999990     44.650349999999996     57.918177499999999
C      53.328749999999992     43.025150000000004     57.404677500000005
C      54.420050000000003     45.490950000000005     58.317577499999999
C      55.969650000000001     48.303549999999994     56.448077499999997
C      55.117549999999994     38.399849999999994     49.776677500000005
C      53.051949999999991     37.336949999999995     51.387577500000006
C      50.293149999999997     39.944049999999997     46.612087500000001
C      49.128450000000001     40.540150000000004     45.963277500000004
C      53.994649999999993     37.531650000000006     50.286677499999996
C      47.900249999999993     37.632349999999995     48.130077499999999
C      46.583949999999994     39.978150000000007     46.232287499999998
C      52.266849999999998     40.003049999999995     48.878177500000007
C      48.001449999999991     39.846049999999998     46.690167500000001
C      53.602149999999995     40.155949999999997     48.840677499999998
C      48.078649999999996     38.822150000000001     49.233077500000007
C      50.714550000000003     38.526450000000004     50.110477500000002
C      51.132350000000002     38.811050000000002     48.814677500000002
C      50.017949999999992     39.134449999999994     47.832977499999998
C      48.531050000000000     39.015949999999997     47.862877500000010
C      52.559349999999995     36.893849999999993     50.046477499999995
C      48.565549999999995     41.235049999999994     44.781957500000004
C      47.092750000000002     41.486049999999999     44.573377500000007
C      46.074550000000002     41.197150000000001     45.561567500000010
C      52.825650000000003     41.367749999999994     48.956677499999998
C      46.437150000000003     42.471449999999997     43.628037500000005
C      45.559150000000002     42.444550000000000     42.138757500000011
C      51.154150000000001     37.459750000000007     49.380677500000004
H      46.039549999999998     38.784349999999996     49.096577500000009
H      52.758250000000004     47.476750000000003     43.633577500000001
H      55.249549999999999     46.707850000000001     42.835247500000008
H      59.617149999999995     46.513950000000001     45.391667499999997
H      58.287649999999999     45.638849999999998     46.605827500000004
H      58.337850000000003     45.023550000000007     44.933507500000005
H      49.264650000000003     44.886550000000007     46.755147499999993
H      50.335049999999995     43.408949999999997     47.411177499999994
H      49.945349999999991     43.771449999999994     46.038557500000010
H      51.209549999999993     48.677749999999996     47.190377499999997
H      51.619950000000003     48.193549999999995     45.323027499999995
H      55.302649999999993     45.751349999999995     46.592097499999994
H      55.186949999999996     47.408449999999995     47.065977500000002
H      39.870249999999999     47.091649999999994     49.626777500000003
H      44.804349999999999     45.527350000000006     50.651877499999998
H      46.583349999999996     50.109249999999989     43.941887499999993
H      48.378649999999993     49.658149999999999     45.669677499999992
H      42.057850000000002     42.670150000000000     50.586077500000002
H      41.034050000000001     44.876449999999998     49.797577500000003
H      41.683850000000000     49.196850000000005     46.214687500000011
H      43.814849999999993     51.253149999999998     43.534917500000006
H      43.179650000000002     49.927849999999999     42.972857500000003
H      46.781649999999992     46.513550000000002     50.391277500000001
H      49.101350000000004     49.012350000000005     49.635777500000003
H      54.056749999999994     43.117250000000006     48.994277500000010
H      50.486749999999994     47.968049999999998     48.808077500000010
H      41.209750000000000     49.550649999999990     43.526867499999994
H      41.172650000000004     50.902650000000001     42.673717500000009
H      49.045149999999992     46.124550000000006     49.059777500000010
H      49.318149999999996     48.501049999999999     45.613607500000001
H      49.762149999999991     46.571450000000006     45.806437500000001
H      45.532550000000001     44.938150000000000     48.778177499999998
H      47.192549999999997     44.678350000000002     48.389677500000005
H      46.241849999999999     46.289250000000003     47.599777500000002
H      39.986649999999997     52.387350000000005     39.158827500000001
H      38.202150000000003     54.612049999999996     48.145377500000009
H      38.316350000000000     52.177749999999996     47.508077499999999
H      38.577249999999999     56.466050000000003     46.342857500000008
H      38.956450000000004     57.150749999999988     43.753787500000001
H      38.563549999999992     49.616049999999987     43.127097500000005
H      39.316749999999999     50.393849999999993     45.926417499999999
H      40.615449999999996     55.020950000000006     39.130407500000004
H      40.523849999999996     56.773550000000000     40.411057499999998
H      37.497550000000004     55.996850000000002     40.810997499999999
H      38.298749999999998     57.536949999999997     41.571107500000011
H      39.216350000000006     58.522150000000003     39.609357500000002
H      39.387650000000001     57.696149999999996     37.990568499999995
H      41.113050000000001     50.641049999999993     45.824367499999994
H      41.320149999999998     51.943249999999992     45.424147500000004
H      36.652250000000002     57.757449999999999     39.614777500000002
H      36.641049999999993     57.422649999999997     38.323397499999999
H      36.848150000000004     59.300450000000005     38.901497500000005
H      39.763249999999999     56.076850000000000     37.295797500000006
H      39.724050000000005     54.314850000000000     37.252422499999994
H      38.263149999999996     55.180349999999997     37.794561500000000
H      36.382850000000005     51.267649999999989     42.806157499999998
H      36.828350000000000     51.808549999999997     44.385577499999997
H      36.454750000000004     50.024749999999997     43.944867500000001
H      55.188650000000003     48.808749999999996     52.541977500000002
H      57.170549999999992     48.055050000000001     53.851177500000006
H      57.160949999999993     46.387049999999995     56.716077499999997
H      53.154650000000004     47.390549999999998     55.098577500000005
H      57.160849999999996     44.350150000000006     54.656777500000004
H      57.168849999999999     45.237850000000002     53.116077500000003
H      52.398049999999998     45.550249999999998     52.012777499999999
H      50.704549999999998     45.829150000000006     52.615477499999997
H      55.394949999999994     39.819849999999995     47.971677499999998
H      51.881449999999994     44.736650000000004     58.282577500000002
H      54.171450000000000     42.742950000000000     58.072277499999998
H      52.421149999999997     42.304650000000002     57.221877500000005
H      55.131649999999993     44.783449999999995     58.747577500000006
H      54.056849999999990     46.342949999999995     58.637177500000007
H      49.202249999999992     39.707450000000001     51.189477499999995
H      46.638050000000000     40.450750000000006     50.131477500000003
H      50.222249999999995     43.223549999999996     52.838977499999999
H      38.262250000000002     50.193949999999987     40.461207500000000
H      51.616349999999997     43.502850000000002     55.260177499999998
H      54.933050000000001     48.501550000000002     56.780577499999993
H      56.355749999999993     48.481050000000003     57.607077500000003
H      56.347149999999999     48.926650000000002     55.604277499999995
H      56.030649999999994     37.876550000000002     49.501277500000000
H      51.288149999999995     40.201550000000005     46.235177500000006
H      55.766649999999998     38.570950000000003     50.734277500000005
H      48.633449999999996     37.018750000000004     48.004077500000008
H      46.799649999999993     37.324450000000006     48.084177499999996
H      49.048749999999998     41.827549999999995     44.084267499999996
H      47.026650000000004     40.466249999999995     43.929727499999998
H      44.973649999999999     41.244750000000003     45.512017499999999
H      45.664749999999998     39.767450000000004     46.844017499999993
H      53.234250000000003     42.800249999999998     50.577477500000001
H      47.213249999999995     43.263849999999998     43.281257500000009
H      46.091849999999994     43.449949999999994     43.955987499999992
H      45.834450000000004     41.674550000000004     41.491317499999994
H      44.575350000000000     42.426449999999996     42.331797500000008
H      46.045749999999991     43.213249999999995     41.388157500000005
H      52.719449999999995     37.962650000000004     52.186477500000009
H      50.254249999999992     36.699549999999995     49.022677500000000
N      51.023449999999997     43.833350000000003     52.262877500000002
N      52.240449999999996     44.334449999999997     55.293277500000002
N      55.074449999999999     39.804049999999997     49.158477500000004
N      46.662249999999993     39.383350000000000     49.781277500000002
N      49.268749999999997     38.841450000000002     50.406677500000001
O      46.584649999999996     48.876849999999997     50.353477499999997
O      48.401849999999996     42.267050000000005     48.646977500000006
O      56.550849999999997     48.878049999999995     43.707827500000008
O      40.444350000000000     49.627150000000007     47.770577500000002
O      43.428950000000000     43.645850000000003     53.099977499999994
O      39.174250000000001     50.305249999999994     41.008257499999999
O      45.694450000000003     50.217449999999999     52.204777500000006
