5

C      48.162010999999993     48.061544999999988     48.002549999999985
H      47.186888999999994     47.634264999999999     48.471050000000005
H      48.813111000000006     47.183534999999999     47.643850000000000
H      48.063181000000000     48.816465000000001     47.143349999999998
H      48.793181000000004     48.747014999999998     48.856650000000002
