22

C      47.319049999999997     45.611999999999995     48.512684999999991
C      47.538150000000002     46.018300000000004     46.939177999999998
C      47.485649999999993     46.705900000000007     49.673874999999995
C      46.743350000000007     47.452100000000009     46.679421999999988
C      48.031850000000006     47.846799999999995     48.679524999999998
C      47.620750000000001     48.451299999999996     47.483094999999992
C      48.999849999999995     48.850600000000007     49.282134999999982
C      48.156850000000006     49.497599999999998     46.470768999999990
C      49.674650000000000     49.861799999999995     48.466684999999998
C      49.155349999999999     50.292200000000001     47.124898999999999
H      48.294950000000000     45.156399999999998     48.966464999999999
H      46.447950000000006     44.869300000000003     48.642074999999991
H      47.128749999999997     45.037100000000002     46.224034999999972
H      48.582250000000002     46.169300000000000     46.758687999999992
H      46.844849999999994     46.713000000000001     50.511764999999997
H      48.321050000000000     46.461999999999996     50.408154999999994
H      45.654849999999996     47.727499999999999     46.787122999999994
H      47.016649999999998     47.685600000000001     45.764934999999994
H      49.499150000000000     48.556199999999997     50.391634999999994
H      47.869050000000001     49.646400000000000     45.488235000000003
H      50.345150000000004     50.612200000000001     49.050534999999996
H      49.429749999999999     51.130699999999997     46.412287899999995
