6

C      47.898799999999994     47.705349999999996     48.752499999999998
C      48.235900000000001     48.026349999999994     47.465300000000006
H      46.775700000000001     47.528750000000002     48.786200000000001
H      48.470800000000011     47.274349999999998     49.247599999999998
H      47.768400000000000     48.725650000000002     46.752400000000002
H      49.224299999999999     47.614549999999994     47.079700000000003
