32

C      48.741499999999995     48.268299999999996     48.923899999999989
C      47.410600000000002     47.512099999999997     49.213099999999997
C      45.766099999999994     50.663999999999994     45.890500000000003
C      48.580299999999994     49.268899999999995     47.922600000000003
C      46.213099999999997     47.753099999999996     48.347999999999999
C      47.145799999999994     50.916699999999999     46.307400000000001
C      47.381799999999998     49.727200000000003     47.267099999999999
C      46.077700000000007     48.918799999999997     47.497699999999995
C      49.589100000000002     48.132399999999997     50.030800000000013
C      49.529799999999994     47.240199999999994     51.158000000000001
C      48.595699999999994     46.197099999999999     51.007500000000007
C      47.757099999999994     44.973899999999993     50.645200000000003
C      49.739500000000007     50.151699999999998     47.768699999999995
C      50.977199999999996     49.764800000000001     48.577300000000008
C      50.707099999999997     49.106800000000000     50.037400000000005
C      45.558800000000005     51.435799999999993     44.807500000000005
C      47.479200000000006     46.286799999999992     49.971900000000005
H      45.478499999999997     46.939199999999992     48.546800000000005
H      47.967699999999994     51.399399999999993     45.866200000000006
H      50.061199999999999     46.994300000000003     51.983400000000003
H      48.521299999999997     44.233899999999998     50.230100000000007
H      47.110200000000006     44.516700000000000     51.519500000000008
H      49.781599999999997     50.261599999999994     46.745100000000008
H      49.578000000000003     51.330800000000004     47.871200000000002
H      51.950699999999998     49.017900000000004     48.171199999999999
H      51.448800000000006     50.783899999999996     48.687600000000003
H      51.713200000000001     48.735700000000001     50.542900000000003
H      50.259100000000004     49.688499999999998     50.900100000000009
H      46.397199999999998     51.766100000000002     44.188600000000008
H      44.664100000000005     51.443099999999994     44.016599999999997
H      44.049300000000002     49.148299999999999     46.278300000000002
N      44.993300000000005     49.574300000000001     46.667699999999996
