27

C      44.847499999999997     47.640099999999997     48.437649999999991
C      45.138399999999997     49.953299999999999     47.810449999999996
C      51.834499999999998     47.707700000000003     47.188150000000000
C      46.266299999999994     47.369000000000007     48.737050000000004
C      44.228500000000004     48.848100000000002     47.923150000000000
C      50.895900000000005     48.170000000000002     48.122949999999996
C      49.981400000000001     48.540499999999994     49.177749999999996
C      48.593499999999999     48.327100000000002     49.202049999999993
C      47.157299999999999     48.350700000000003     48.753350000000005
C      51.512700000000002     45.896700000000003     45.352849999999997
C      49.296100000000003     48.272900000000007     50.533549999999998
C      46.636099999999992     49.817200000000000     48.339350000000003
C      51.948599999999992     47.158600000000007     48.750049999999995
C      51.695799999999998     47.381900000000002     45.936349999999997
H      44.119700000000002     46.986400000000003     48.077350000000003
H      46.317799999999998     46.143000000000001     48.883450000000003
H      43.204000000000001     48.959400000000002     47.497049999999994
H      48.865800000000000     49.163499999999999     51.116149999999998
H      49.700700000000005     47.287100000000002     50.878549999999997
H      46.092999999999996     50.047500000000007     49.424650000000000
H      47.346100000000000     50.656400000000005     48.166049999999998
H      52.744199999999999     47.604800000000004     49.249150000000007
H      51.373899999999999     46.821800000000003     49.563449999999996
H      51.038999999999994     48.012300000000010     45.325949999999999
H      52.795999999999999     47.642100000000006     45.361349999999995
O      51.210199999999993     44.879300000000001     44.883850000000002
O      44.741399999999992     51.120699999999999     47.710050000000003
