22

C      46.572349999999993     48.339239999999997     50.166589999999992
C      46.375050000000002     49.834940000000003     49.486150000000002
C      48.025349999999996     47.797460000000001     50.061270000000000
C      46.774950000000004     49.566680000000005     48.096670000000003
C      48.537349999999989     47.615120000000005     48.656804000000001
C      47.884949999999989     48.480710000000002     47.724270000000004
C      49.424949999999995     46.468510000000002     48.055570000000003
C      48.664549999999991     48.433920000000001     46.438170000000007
C      50.078850000000003     46.349969999999999     46.766469999999991
C      49.693550000000002     47.523370000000000     45.908169999999998
H      45.900349999999996     47.660899999999998     49.840930000000000
H      46.173349999999999     48.963560000000001     51.078029999999998
H      45.291550000000001     50.277500000000003     49.654809999999998
H      46.887950000000004     50.561109999999999     49.939079999999997
H      48.266249999999999     47.146750000000004     50.919319999999999
H      48.705749999999995     48.545000000000002     50.503430000000009
H      45.877449999999996     49.011890000000008     47.617370000000015
H      47.000450000000001     50.412620000000004     47.315669999999997
H      49.717649999999992     45.917230000000004     48.974615000000000
H      48.823549999999997     49.187350000000009     45.639470000000010
H      50.708449999999999     45.438890000000001     46.469770000000011
H      50.062249999999999     47.861590000000000     44.921970000000002
