23

C      49.944099999999992     47.509239399999984     45.423399999999994
C      46.412300000000002     45.919682399999992     46.593499999999992
C      47.773400000000002     46.106688399999996     45.917500000000004
C      45.858100000000000     47.292969399999997     47.026000000000010
C      48.527999999999999     47.560339399999997     45.861000000000004
C      47.167200000000001     47.817629399999994     47.823000000000000
C      48.240200000000002     48.310539400000003     47.220500000000001
C      46.982599999999998     47.936609399999995     49.320000000000007
C      49.147800000000004     49.086629400000000     47.928300000000000
C      47.664499999999997     49.016949399999994     50.011099999999999
C      48.628599999999999     49.711629399999993     49.166899999999998
H      45.631900000000002     45.603172399999998     45.731899999999996
H      46.483899999999998     45.283790599999996     47.514399999999995
H      48.303600000000003     45.806592399999992     46.879899999999992
H      48.298800000000000     45.404738399999992     45.098800000000004
H      46.122900000000001     48.120749399999994     46.086500000000001
H      44.962400000000002     47.373109399999997     47.602000000000004
H      48.101199999999999     47.949489399999997     45.029600000000002
H      46.028300000000002     47.543289399999992     49.750600000000006
H      49.951300000000003     49.367109399999997     47.324700000000000
H      47.507500000000000     49.391919399999985     50.970399999999998
H      49.090299999999999     50.716209400000004     49.438100000000006
O      51.037599999999998     47.214839399999995     45.579500000000003
