5

C      47.314250000000001     48.511849999999981     47.949100000000001
C      48.241950000000003     47.565049999999992     47.557100000000005
H      47.134150000000005     48.867349999999995     48.909799999999997
H      47.179150000000007     49.322949999999999     47.090200000000003
O      48.865849999999995     46.677050000000001     47.152100000000004
