20

C      48.476999999999990     48.743399999999994     50.458714999999977
C      47.152699999999996     49.475300000000004     50.044994999999986
C      49.399100000000004     48.052000000000007     49.361274999999985
C      46.614300000000000     49.531400000000005     48.683445999999982
C      48.539200000000008     47.986000000000004     48.070253999999984
C      47.184800000000010     48.522700000000000     47.745855000000020
C      49.098400000000012     47.030000000000001     47.341054999999990
C      46.468299999999999     48.022199999999998     46.524754999999985
C      48.367400000000004     46.419799999999995     46.129955000000010
C      47.269800000000004     47.109999999999999     45.759754999999998
H      48.361600000000010     47.793700000000001     51.182344999999984
H      48.775700000000001     49.722400000000007     50.842764999999986
H      46.570200000000000     49.919100000000000     50.796294999999986
H      49.766400000000004     46.989500000000007     49.324824999999983
H      50.294899999999998     48.568500000000000     49.178664999999988
H      45.879599999999996     50.293700000000001     48.406349999999982
H      50.151500000000013     46.607100000000003     47.610455000000002
H      45.705100000000002     48.335599999999999     45.935654999999997
H      49.064000000000007     45.706299999999999     45.542055000000019
H      46.993700000000004     46.541100000000000     44.817655000000016
