22

C      49.090299999999992     47.158400000000000     46.223959999999977
C      49.734300000000005     46.336000000000006     47.322159999999997
C      47.417100000000005     47.196400000000004     46.359459999999999
C      49.561700000000002     47.130900000000004     48.551360000000003
C      47.342299999999994     48.039400000000008     47.684057000000010
C      48.473399999999998     48.244800000000005     48.649090000000001
C      46.208700000000007     48.796200000000006     47.772425999999996
C      48.699300000000008     49.479700000000001     49.417270000000002
C      46.232100000000003     49.776200000000010     48.875850000000000
C      47.372799999999998     49.905000000000008     49.709800000000001
H      49.395099999999999     46.723199999999999     45.354860000000002
H      49.796400000000006     47.906200000000005     45.890659999999997
H      49.235299999999995     45.407800000000002     47.323059999999998
H      50.846299999999999     46.225700000000010     47.151759999999996
H      47.190899999999999     46.250700000000002     46.323160000000001
H      47.112800000000007     47.722200000000008     45.380859999999998
H      50.646900000000002     47.863500000000009     48.562699999999992
H      49.638100000000009     46.680000000000000     49.468180000000004
H      45.153700000000001     48.759200000000000     47.128959999999992
H      49.650599999999997     49.848500000000008     49.956180000000003
H      45.426299999999998     50.592199999999998     48.856120000000004
H      47.441900000000004     50.467700000000001     50.645139999999998
