71

C      50.968044999999989     50.550149999999995     49.734299999999998
C      49.663744999999999     50.876850000000005     50.500300000000003
C      49.850445000000001     45.853549999999998     42.742400000000004
C      51.612545000000004     47.358750000000001     43.891990000000007
C      44.895044999999996     44.355750000000000     45.734200000000001
C      51.229644999999998     50.048749999999998     48.398700000000005
C      44.572844999999994     45.394449999999992     46.737400000000001
C      48.653144999999995     50.042649999999995     49.674400000000006
C      50.285444999999996     46.709850000000003     43.782300000000006
C      48.526944999999998     45.469750000000005     42.834880000000005
C      45.690044999999998     44.742350000000002     44.554970000000004
C      45.313544999999998     47.290549999999996     48.313700000000004
C      46.322944999999997     48.239549999999994     48.637900000000002
C      50.182245000000002     48.400949999999995     46.680000000000007
C      45.440745000000000     46.619950000000003     46.932500000000005
C      50.079744999999996     49.279949999999999     47.854700000000001
C      48.696544999999993     49.220050000000001     48.410700000000006
C      48.009944999999995     46.002849999999995     44.121520000000004
C      49.168244999999992     46.848150000000004     44.739580000000004
C      46.713445000000000     45.833249999999992     44.825520000000004
C      47.647044999999999     48.358049999999992     47.934600000000003
C      49.028044999999999     47.721649999999997     45.931700000000006
C      46.671744999999994     46.723849999999999     46.013400000000004
C      47.743244999999995     47.545649999999995     46.605900000000005
C      47.547444999999996     49.475049999999996     50.382700000000000
C      46.255544999999998     48.895049999999998     49.884000000000000
C      49.456844999999994     50.576149999999998     52.170800000000000
C      48.468145000000000     49.706050000000005     52.790800000000004
C      46.996845000000000     49.706149999999994     51.878800000000012
C      43.825144999999999     44.952550000000002     47.933600000000006
C      42.942444999999999     45.986450000000005     48.489500000000007
C      44.012744999999995     46.917050000000003     49.268300000000004
C      52.307444999999994     50.776650000000004     50.451800000000006
C      53.436244999999992     51.633550000000000     49.522200000000005
C      53.905544999999996     50.742249999999999     48.585200000000000
C      52.702644999999997     49.999250000000004     47.798000000000002
C      41.720994999999995     45.375450000000001     49.311300000000003
C      49.396844999999992     51.983649999999997     51.778999999999996
C      50.726344999999995     50.187349999999995     53.000100000000003
H      41.291255000000000     45.857649999999992     50.252500000000005
H      50.429844999999993     45.746250000000003     41.850300000000004
H      44.328644999999995     43.455050000000000     45.839100000000002
H      47.947144999999999     44.955749999999995     42.202390000000001
H      45.439045000000000     44.076549999999997     43.775580000000005
H      50.737544999999997     48.906350000000003     45.760700000000000
H      50.844544999999997     47.595249999999993     46.862200000000001
H      45.380144999999999     48.538550000000001     50.576000000000008
H      48.768944999999995     48.759850000000000     53.391700000000000
H      47.981644999999993     50.415350000000004     53.477900000000005
H      46.486344999999993     48.835350000000005     52.162900000000008
H      46.321544999999993     50.654749999999993     52.110299999999995
H      44.633344999999998     44.767449999999997     48.684900000000006
H      43.090444999999995     44.219149999999999     47.638100000000001
H      42.641644999999997     46.403649999999999     47.572500000000005
H      44.724944999999998     46.194450000000003     49.934300000000007
H      43.634044999999993     47.411950000000004     50.055800000000005
H      53.196544999999993     50.009249999999994     50.476600000000005
H      52.137444999999992     51.443249999999992     51.447599999999994
H      52.829945000000002     52.516850000000005     49.032000000000004
H      54.327745000000000     52.021349999999998     50.099199999999996
H      54.708745000000000     50.014949999999999     48.895600000000002
H      54.673544999999997     51.377849999999995     47.928900000000006
H      52.622644999999999     48.918350000000004     47.618700000000004
H      52.682144999999998     50.702550000000002     46.757100000000001
H      48.628944999999995     52.509349999999998     51.963300000000004
H      50.207944999999995     52.544950000000000     52.087299999999999
H      50.686144999999996     49.785749999999993     54.149699999999996
H      51.532144999999993     49.487449999999995     52.265400000000000
H      51.570045000000000     50.827449999999999     53.142600000000002
O      41.492534999999997     44.185450000000003     49.437800000000003
O      52.619244999999999     47.769350000000003     43.811230000000002
