22

C      48.449088999999987     50.666289999999989     48.027249999999988
C      47.664588999999999     50.511290000000002     46.661450000000002
C      49.152788999999991     49.486189999999993     48.970349999999996
C      46.944488999999997     48.948589999999996     46.728750000000005
C      48.646088999999996     48.023789999999991     48.773550000000000
C      47.609288999999997     47.899889999999999     47.783050000000003
C      49.108589000000002     46.942629999999994     49.615250000000003
C      46.965788999999994     46.585489999999993     47.743250000000003
C      48.672188999999996     45.555269999999993     49.396150000000006
C      47.587189000000002     45.532589999999999     48.497050000000002
H      48.834689000000004     51.584090000000003     48.269050000000007
H      47.621489000000004     50.693190000000001     48.992850000000004
H      47.028589000000004     51.351789999999994     46.392350000000008
H      48.444788999999993     50.744789999999995     45.938050000000004
H      48.862489000000004     50.058189999999996     49.910350000000008
H      50.124911000000004     49.588790000000003     48.487250000000003
H      47.287688999999993     48.692589999999996     45.721649999999997
H      45.983589000000002     48.664490000000001     46.665850000000006
H      50.040955000000004     47.142229999999998     50.278350000000003
H      45.875088999999996     46.589439999999996     47.357150000000004
H      49.053088999999993     44.774810000000002     49.972449999999995
H      47.288688999999998     44.415909999999997     48.405050000000003
