22

C      47.773299999999985     48.323649999999994     45.274130000000000
C      47.518799999999999     46.828350000000000     45.396879000000006
C      48.182000000000002     49.269849999999991     46.442285000000005
C      47.380399999999995     46.435149999999993     46.846804999999996
C      48.364899999999992     48.684449999999998     47.895784999999997
C      48.112200000000001     47.260249999999999     47.992574999999995
C      48.877700000000004     49.372549999999990     49.099724999999999
C      48.333900000000000     46.641449999999992     49.263285000000003
C      48.939700000000002     48.752449999999996     50.428275000000006
C      48.426099999999991     47.408649999999994     50.525955000000003
H      48.237399999999994     48.473450000000000     44.386324999999992
H      46.582300000000004     48.879750000000001     44.826580500000006
H      46.487200000000001     46.511550000000000     45.030925000000003
H      48.034300000000002     46.023550000000000     44.791625000000018
H      47.171300000000002     49.962149999999994     46.466035000000012
H      48.662999999999997     50.220050000000001     46.095315000000006
H      47.680099999999996     45.304349999999999     46.792684999999999
H      46.333500000000001     46.480549999999994     47.372665000000005
H      48.757199999999997     50.695650000000001     49.106135000000002
H      48.400199999999998     45.633550000000000     49.542994999999998
H      49.666499999999999     49.179850000000002     51.300155000000011
H      48.796799999999990     47.121049999999997     51.613675000000008
