22

C      46.420949999999998     46.986049999999992     49.729799999999983
C      47.023150000000001     48.511550000000014     49.962499999999999
C      47.896850000000001     46.312250000000006     49.431400000000004
C      49.355950000000007     48.392150000000001     48.774600000000000
C      48.155050000000003     47.397850000000005     48.317299999999996
C      47.847049999999996     48.775150000000011     48.612699999999997
C      47.243650000000002     47.073650000000001     47.133000000000003
C      47.616050000000001     49.814350000000005     47.624800000000000
C      47.022450000000006     47.902850000000001     46.052599999999991
C      47.431150000000002     49.380650000000003     46.330300000000001
H      45.753450000000001     46.844450000000009     48.755699999999997
H      45.796949999999995     46.761850000000010     50.785299999999999
H      46.718550000000008     49.598950000000002     49.795899999999996
H      47.368049999999997     48.621850000000009     50.901000000000003
H      48.279250000000005     46.090650000000011     50.575399999999995
H      47.538449999999997     45.380049999999997     48.733100000000000
H      50.246549999999999     48.999550000000013     48.484099999999991
H      49.551450000000003     48.066749999999999     49.988999999999997
H      46.702849999999998     46.099850000000004     46.798699999999990
H      47.360450000000000     50.619950000000003     48.189599999999992
H      46.739950000000007     47.472050000000010     45.098999999999997
H      47.275350000000003     50.206249999999997     45.620500000000000
