44

C      45.927844999999991     46.544799999999995     47.788519999999991
C      48.559015000000002     46.539200000000001     49.113620000000012
C      46.754935000000003     50.622900000000001     48.278320000000008
C      47.947015000000007     50.436700000000002     47.338520000000003
C      45.105395000000001     47.587699999999991     46.942099999999996
C      49.269015000000010     47.421199999999999     48.038720000000012
C      45.500315000000001     49.798899999999996     47.997219999999999
C      47.647515000000013     49.770600000000009     46.176969999999997
C      45.341935000000007     49.041800000000002     46.850040000000007
C      46.239654999999999     49.494199999999999     45.770390000000006
C      46.573925000000003     45.265299999999996     47.896820000000005
C      47.072855000000004     46.319200000000002     48.820820000000012
C      49.596615000000000     46.473099999999995     50.064419999999998
C      50.378115000000008     47.322299999999998     49.112420000000000
C      46.658275000000003     51.043999999999997     49.689419999999998
C      48.900514999999999     51.354999999999997     49.528819999999996
C      47.802515000000000     51.417200000000001     50.486819999999994
C      49.112015000000000     50.851999999999997     48.123120000000000
C      44.503615000000011     46.637200000000000     47.926020000000008
C      46.330925000000008     44.059599999999996     48.024620000000013
C      51.694215000000014     47.940100000000001     50.974119999999999
C      51.277715000000001     48.178899999999999     49.703020000000009
C      50.872215000000011     46.601599999999998     47.798720000000003
C      44.942625000000007     49.231899999999996     45.119029999999995
C      44.004275000000007     46.790700000000001     49.340620000000001
C      50.023915000000002     52.128899999999994     49.809120000000007
H      44.992585000000005     50.137800000000006     48.779820000000001
H      48.437615000000008     49.542800000000000     45.483750000000001
H      49.823815000000010     45.952300000000001     51.077120000000008
H      45.628645000000006     50.746000000000002     50.065820000000002
H      47.881615000000011     51.539499999999997     51.675020000000004
H      50.193714999999997     50.732500000000009     47.769320000000008
H      46.398315000000011     43.444299999999998     47.167320000000004
H      47.416615000000007     43.396900000000002     48.364220000000003
H      51.483315000000005     46.849599999999995     51.525320000000008
H      52.577015000000003     48.523999999999994     51.320819999999998
H      51.968315000000004     48.804200000000002     49.165920000000000
H      50.790914999999998     45.619700000000002     47.970720000000000
H      51.765115000000009     47.451900000000002     47.750320000000002
H      51.099215000000001     51.952100000000002     49.221620000000001
H      50.153514999999999     52.603099999999998     50.732420000000005
H      49.085515000000001     48.426299999999991     47.648319999999998
O      44.078995000000006     49.239599999999996     44.324979999999996
O      43.422984999999997     46.957199999999993     50.251819999999995
