86

C      51.566300000000005     48.027599999999993     48.687999999999995
C      45.685500000000005     49.961800000000004     43.599600000000009
C      44.574000000000012     50.247300000000003     42.590500000000006
C      43.774200000000008     45.352899999999998     44.014000000000010
C      42.824300000000008     45.434800000000003     42.787599999999998
C      45.684100000000001     48.760799999999996     44.420400000000001
C      43.654500000000013     49.114799999999995     42.202300000000008
C      44.822600000000008     46.348400000000005     44.461600000000004
C      42.957100000000011     46.764299999999999     42.169899999999998
C      44.919200000000004     47.661200000000001     43.845900000000000
C      43.819100000000006     47.849700000000006     42.806300000000007
C      46.373200000000011     51.176200000000001     44.355600000000010
C      46.631600000000006     52.219400000000000     43.353000000000009
C      44.694200000000009     51.473700000000001     41.875300000000010
C      43.696200000000005     44.196500000000000     44.853600000000000
C      43.116300000000010     42.961199999999998     44.533100000000005
C      42.175900000000013     42.984400000000001     43.358800000000002
C      42.016700000000000     44.168500000000002     42.507400000000004
C      47.123600000000010     51.331299999999999     45.618200000000002
C      46.778300000000002     50.641200000000005     46.859600000000000
C      47.874400000000009     52.560400000000001     45.451099999999997
C      47.195800000000006     53.268700000000003     44.317400000000006
C      47.750800000000012     52.976300000000002     47.873199999999997
C      49.535200000000003     49.289099999999998     49.578299999999999
C      49.442800000000005     48.103500000000004     52.963600000000000
C      48.376900000000006     48.504899999999999     53.855300000000000
C      48.037400000000005     50.528100000000002     48.057699999999997
C      44.579599999999999     52.385100000000001     52.215699999999998
C      46.981600000000000     51.518900000000002     47.982100000000003
C      46.073700000000002     51.728900000000003     48.994500000000002
C      48.932700000000011     48.363700000000001     51.693700000000007
C      46.213200000000001     50.042400000000008     53.856800000000007
C      48.254400000000004     49.992899999999999     49.465200000000010
C      44.617100000000008     51.617200000000004     53.531900000000007
C      46.203800000000001     51.163300000000000     50.397400000000005
C      47.725000000000009     49.256899999999995     51.705200000000005
C      47.328100000000006     49.268499999999996     53.106200000000001
C      47.213500000000010     50.155200000000001     50.563699999999997
C      45.499000000000009     50.885700000000000     53.048400000000001
C      45.640100000000004     51.480200000000004     51.752800000000008
C      49.802700000000002     48.170300000000005     50.451800000000006
C      50.450700000000012     49.064600000000006     48.521100000000004
C      51.831100000000006     42.638399999999997     45.454000000000008
C      51.006200000000007     43.682600000000001     45.912700000000001
C      51.982400000000013     44.704000000000001     46.699500000000000
C      53.024200000000008     45.418500000000002     46.129500000000007
C      51.509600000000006     44.455599999999997     48.010800000000003
C      53.741200000000006     46.036200000000001     47.198500000000010
C      52.396700000000010     44.982900000000001     49.057600000000008
C      53.230900000000005     46.092199999999998     48.612700000000004
C      50.350800000000007     47.987800000000000     47.495400000000004
H      46.191700000000012     48.440700000000000     45.273400000000009
H      42.849000000000004     49.520699999999998     41.507000000000005
H      45.341300000000004     46.620699999999999     45.357100000000003
H      42.225700000000003     47.049500000000002     41.322200000000009
H      44.147000000000006     51.276900000000005     41.025999999999996
H      44.541100000000000     44.259300000000003     45.617100000000008
H      43.395600000000002     41.948000000000000     44.746099999999998
H      41.743100000000013     42.116000000000000     42.915400000000005
H      41.469200000000001     43.911700000000003     41.680199999999999
H      46.115200000000002     49.765399999999993     46.948700000000002
H      48.853500000000011     52.913099999999993     46.120599999999996
H      47.363800000000012     54.274099999999997     44.053100000000001
H      45.237000000000009     53.355300000000000     42.125700000000009
H      50.947600000000008     49.977100000000000     48.162700000000001
H      50.411900000000003     47.607400000000005     53.012000000000000
H      48.478800000000007     48.469799999999999     54.974000000000004
H      48.973700000000008     50.973599999999998     47.724900000000005
H      44.288600000000002     53.278900000000000     51.774299999999997
H      45.398400000000009     52.453499999999998     48.799900000000008
H      46.065600000000003     49.874800000000000     54.897700000000000
H      43.779600000000002     51.411899999999996     54.161299999999997
H      50.666700000000006     47.336800000000004     50.322600000000008
H      52.943300000000008     42.416199999999996     45.793000000000006
H      51.811100000000010     41.725900000000003     45.006500000000003
H      53.309400000000011     45.184800000000003     45.094400000000007
H      50.001200000000011     43.966500000000003     46.018400000000000
H      50.775700000000001     43.860599999999998     48.424800000000005
H      54.530799999999999     46.832500000000003     47.053899999999999
H      52.210700000000003     44.805700000000002     50.014700000000005
H      54.141900000000007     46.170800000000000     49.377899999999997
H      50.597400000000007     47.541499999999999     46.376400000000004
H      50.124600000000001     47.072300000000006     48.165700000000001
N      45.649700000000010     52.499200000000009     42.258600000000001
O      52.630800000000008     47.594000000000001     48.782600000000002
O      48.283400000000000     53.820500000000003     47.592700000000008
