22

C      46.513749999999995     45.810949999999991     47.788899999999991
C      45.865549999999999     47.344150000000013     47.855100000000000
C      47.586349999999996     46.505949999999999     48.723399999999998
C      46.520449999999997     48.527150000000006     46.766999999999996
C      48.072950000000006     48.029950000000014     48.443799999999996
C      47.961050000000000     48.844549999999998     47.235599999999998
C      49.153750000000002     48.434750000000008     49.357399999999998
C      49.109750000000005     49.677350000000004     46.696799999999996
C      50.148550000000000     49.346350000000001     48.828400000000002
C      50.219750000000005     50.017850000000010     47.460900000000002
H      45.852350000000001     45.291550000000001     48.522799999999997
H      46.766949999999994     45.139049999999997     46.956499999999998
H      45.008449999999996     47.314650000000015     47.339500000000001
H      45.528550000000003     47.810150000000007     48.914299999999997
H      48.198450000000008     45.692650000000000     48.362400000000001
H      47.290350000000004     46.731750000000005     49.888599999999997
H      46.562749999999994     47.660350000000008     45.963799999999999
H      45.953550000000000     49.257850000000005     46.142499999999998
H      48.927650000000000     47.946950000000001     50.264099999999999
H      49.101450000000000     49.876650000000012     45.735900000000001
H      50.769050000000007     49.872850000000014     49.598599999999990
H      50.991550000000004     50.860950000000003     47.087899999999998
