21

C      47.269699999999993     45.363099999999989     45.224549999999986
C      47.359899999999996     48.153900000000007     46.284049999999993
C      47.893200000000007     46.587400000000002     46.115150000000000
C      48.009600000000006     45.896500000000003     47.565049999999999
C      48.278800000000004     47.450699999999998     47.247850000000000
C      48.934100000000001     48.368100000000013     48.308650000000000
C      49.183000000000007     49.849900000000005     47.969749999999991
C      48.947699999999998     48.215800000000002     49.761550000000000
C      49.372399999999999     50.443200000000004     49.286749999999998
C      49.114600000000003     49.464900000000014     50.376350000000002
H      46.370900000000006     45.605700000000013     44.622450000000001
H      47.178800000000003     44.472499999999997     45.760549999999995
H      48.018699999999995     48.933500000000009     45.994349999999997
H      46.844200000000001     48.687500000000000     47.325149999999994
H      48.379500000000007     45.107200000000006     44.701049999999995
H      48.837800000000001     45.158600000000007     47.487250000000003
H      47.119799999999998     45.714300000000009     48.020650000000003
H      49.405799999999999     50.205800000000011     46.912049999999994
H      48.815800000000010     47.272700000000015     50.427049999999994
H      49.203500000000005     51.527500000000003     49.238249999999994
H      49.629099999999994     49.509700000000009     51.377549999999999
