5

C      47.299450000000000     48.212349999999994     47.597949999999990
C      48.517850000000010     47.589150000000004     47.945250000000001
H      49.504249999999999     47.981450000000009     47.912949999999995
H      48.753350000000012     46.928950000000000     48.781350000000003
O      46.495750000000001     49.071050000000000     47.218649999999997
