6

C      47.638332999999989     47.959450000000004     48.746899999999997
C      48.269129999999997     48.315550000000009     47.478200000000001
H      48.189329999999991     47.373150000000003     49.394999999999996
H      46.671340000000008     48.130150000000008     49.192699999999988
H      49.328659999999992     47.824550000000009     47.029799999999994
H      47.477884999999993     48.626849999999997     46.605000000000004
