22

C      46.095199999999991     48.174500000000002     46.426899999999996
C      47.793700000000001     46.378100000000003     48.802000000000000
C      46.915199999999999     49.481700000000004     47.255499999999998
C      46.579999999999998     47.516900000000007     49.539999999999992
C      47.493600000000008     48.209000000000003     47.040899999999993
C      47.736000000000004     47.810900000000004     48.558300000000003
C      48.578800000000008     47.724500000000006     46.202600000000004
C      48.964399999999991     48.510500000000008     48.951400000000007
C      49.819400000000009     48.238799999999998     46.509100000000004
C      49.763500000000001     48.902299999999997     47.806500000000000
H      45.344000000000001     47.925100000000000     47.157100000000000
H      46.111200000000004     47.928300000000007     45.392400000000002
H      48.701799999999999     46.124899999999997     49.377200000000002
H      47.212899999999998     45.668800000000005     48.166899999999998
H      46.406399999999998     49.717500000000001     48.174599999999998
H      47.453299999999999     50.331199999999995     46.963200000000001
H      46.817299999999996     47.290999999999997     50.607599999999998
H      45.451700000000002     47.691600000000008     49.334800000000001
H      48.460100000000004     46.851200000000006     45.606500000000004
H      48.881999999999998     48.445800000000006     49.998699999999999
H      50.655999999999999     48.011700000000005     45.859500000000004
H      50.619300000000003     49.464300000000009     48.095399999999998
