64

C      43.836149999999989     49.240799999999993     49.501203999999987
C      44.961849999999998     49.000100000000003     50.366294999999987
C      50.264549999999993     44.947100000000006     49.027504999999984
C      43.556649999999998     48.198000000000008     48.444404999999982
C      51.376849999999997     44.272900000000007     48.270405000000004
C      45.357949999999995     47.605100000000007     50.355475000000006
C      48.674149999999990     44.860900000000001     47.046405000000000
C      47.269549999999995     45.095800000000011     46.472204999999995
C      44.772349999999996     46.068800000000010     47.165504999999989
C      49.002649999999996     45.214300000000009     48.414004999999996
C      44.391149999999989     46.971299999999999     48.267105000000022
C      46.334849999999996     45.895099999999999     47.236905000000014
C      48.072249999999997     46.025000000000006     49.183605000000007
C      45.443149999999996     46.574600000000004     49.305505000000004
C      46.757249999999999     46.192300000000003     48.608705000000022
C      43.153949999999995     50.473700000000008     49.739525999999991
C      43.759749999999997     51.390700000000010     50.799904999999988
C      45.429650000000002     49.921400000000006     51.412434999999995
C      49.873150000000003     44.136900000000011     46.482104999999983
C      49.451449999999994     43.508300000000006     45.255105000000007
C      48.081849999999996     43.806700000000006     44.683105000000012
C      46.953549999999993     44.549900000000008     45.225905000000019
C      41.951449999999994     51.021800000000013     48.933605000000000
C      41.271649999999994     52.352200000000011     49.260305000000017
C      41.809449999999998     53.093800000000002     50.355264999999996
C      43.007949999999994     52.634000000000000     50.923924999999997
C      41.938649999999996     49.965200000000010     47.911304999999999
C      42.529949999999999     48.777600000000007     47.552405000000000
C      51.183349999999997     43.773700000000005     46.949305000000017
C      52.735850000000006     44.300400000000010     49.028304999999989
C      53.277850000000008     45.628799999999998     49.336804999999998
C      54.464949999999995     45.838999999999999     50.601084999999998
C      52.401649999999997     43.731400000000008     50.522664999999996
C      53.658050000000010     43.034900000000007     48.888904999999987
C      45.307049999999997     45.926100000000005     50.704714999999993
H      48.693149999999996     45.896300000000011     51.362424999999995
H      54.360149999999997     42.880000000000010     49.856137999999994
H      50.281949999999988     45.732300000000009     49.866697999999992
H      43.969349999999999     45.840200000000010     46.589505000000010
H      50.121649999999995     42.790500000000009     44.826105000000005
H      48.401249999999997     43.173200000000008     43.714505000000003
H      46.017349999999993     44.455300000000008     44.797504999999994
H      40.671349999999997     52.697400000000002     48.514904999999999
H      41.210349999999998     53.845500000000001     50.735724999999995
H      42.908549999999998     53.294700000000006     51.938594999999999
H      41.109149999999993     50.492700000000013     47.343905000000007
H      42.133949999999999     47.997700000000009     46.604604999999999
H      52.005549999999992     43.215400000000002     46.465904999999999
H      52.456149999999987     46.210500000000010     49.760111999999985
H      53.941149999999993     46.211600000000004     48.606005000000017
H      53.810949999999984     46.389300000000006     51.349344999999992
H      55.061450000000001     44.950100000000006     50.811214999999997
H      55.328650000000003     46.696200000000005     50.223026999999995
H      51.948049999999995     42.736000000000004     50.552164999999995
H      53.196149999999996     44.007600000000011     51.194515000000003
H      51.733950000000000     44.170300000000012     51.165354999999998
H      53.095250000000000     42.154499999999999     48.761705000000006
H      54.189450000000001     42.725200000000001     47.854205000000000
H      44.272449999999999     45.405600000000007     50.888774999999988
H      46.151649999999997     45.387000000000000     51.154214999999994
H      48.317850000000000     47.736200000000011     50.482104999999997
H      45.877449999999996     49.660000000000011     52.285494999999997
N      48.340049999999998     46.567000000000007     50.569775000000000
N      44.813949999999998     51.088900000000010     51.647375000000004
