42

C      48.007599999999996     47.285649999999997     47.047649999999990
C      46.924199999999999     48.240750000000006     46.379449999999999
C      49.777099999999990     51.864650000000005     47.392149999999994
C      49.112600000000000     48.120750000000001     47.532850000000003
C      46.869100000000003     49.726650000000006     46.232049999999994
C      49.961399999999998     50.467849999999999     47.929249999999996
C      48.326099999999997     51.708950000000002     46.511649999999996
C      48.961799999999997     49.554450000000003     47.466150000000006
C      48.043999999999997     50.255049999999997     46.762449999999994
C      47.973699999999994     45.979350000000004     47.231849999999994
C      46.772499999999994     45.208550000000002     47.028049999999993
C      45.606099999999998     46.156750000000002     46.680850000000000
C      45.711699999999993     47.398849999999996     46.262549999999997
C      49.353200000000001     45.325950000000006     47.642549999999993
C      49.474099999999993     43.931850000000004     47.101549999999996
C      48.139999999999986     43.310050000000004     46.818549999999995
C      46.809399999999997     43.748650000000005     47.017349999999993
C      50.413699999999992     46.040250000000000     48.305649999999993
C      50.252299999999991     47.533950000000004     48.281650000000006
C      51.354999999999990     48.409549999999996     48.627849999999995
C      50.817699999999988     49.650950000000009     48.929649999999995
C      51.793099999999995     50.692050000000009     49.681249999999999
C      50.475999999999999     53.029949999999999     47.302549999999997
C      44.280199999999994     47.834249999999997     46.584249999999997
H      46.163299999999992     50.298649999999995     45.680249999999994
H      47.590800000000002     52.554250000000003     46.717749999999995
H      48.336499999999987     51.963950000000011     45.384949999999996
H      44.676800000000000     45.623750000000001     46.662549999999996
H      48.021899999999988     42.205550000000002     46.784249999999993
H      45.832700000000003     42.989450000000005     47.205549999999995
H      51.545499999999990     45.562150000000003     48.589850000000006
H      52.319999999999993     47.802750000000003     48.906849999999999
H      50.226100000000002     49.610750000000003     49.873349999999995
H      52.716099999999997     50.062449999999998     49.947649999999989
H      51.549099999999996     51.698850000000007     49.763249999999999
H      51.277000000000001     50.802650000000000     50.615050000000004
H      51.389799999999994     52.738849999999999     47.470549999999996
H      50.052299999999988     53.794449999999998     46.673749999999998
H      44.469200000000001     48.951950000000004     46.898349999999994
H      43.283900000000003     47.890050000000002     46.297449999999998
H      43.828299999999999     47.450450000000004     47.382749999999994
O      50.438699999999997     43.191350000000000     46.935149999999993
