22

C      49.096399999999988     50.502149999999993     47.699149999999996
C      49.971299999999992     49.684349999999995     46.778849999999998
C      48.046399999999998     49.901749999999993     48.659250000000000
C      49.805900000000001     48.150250000000000     47.145850000000003
C      47.821700000000000     48.260549999999995     48.581150000000008
C      48.506000000000000     47.610450000000000     47.447049999999997
C      46.638399999999997     47.809249999999992     49.323749999999990
C      47.922899999999998     46.300449999999998     47.338450000000002
C      46.002899999999997     46.710149999999999     48.756950000000003
C      46.588299999999997     45.833349999999996     47.717750000000002
H      48.507199999999997     51.256749999999997     47.236449999999998
H      49.778999999999996     51.240849999999995     48.175049999999999
H      51.015999999999998     49.956249999999997     46.935650000000003
H      49.832299999999996     50.016449999999992     45.732849999999999
H      47.801499999999997     50.272049999999993     49.614550000000001
H      47.141199999999998     50.342749999999995     48.220550000000003
H      50.487299999999998     48.074249999999992     47.937449999999998
H      50.105700000000006     47.459249999999997     46.144050000000000
H      46.506999999999998     48.276749999999993     50.267150000000001
H      48.262099999999997     45.515749999999997     46.711649999999999
H      44.984000000000002     46.427549999999997     49.364949999999993
H      46.225999999999999     44.743250000000003     47.864350000000002
