22

C      50.259999999999991     47.470314999999999     49.011399999999995
C      49.104399999999998     46.802674999999994     49.715200000000003
C      49.737699999999997     48.944224999999989     48.670800000000007
C      48.196799999999996     46.284135000000006     48.738500000000002
C      48.392699999999998     48.787184999999994     47.824700000000000
C      47.670399999999994     47.401655000000005     47.918600000000005
C      47.942999999999998     49.754604999999998     46.839800000000004
C      46.430199999999999     47.515124999999998     47.213500000000003
C      46.682699999999997     49.724185000000006     46.132700000000007
C      45.885700000000000     48.593485000000001     46.446700000000000
H      51.131700000000002     47.357884999999996     49.595400000000005
H      50.688700000000004     46.833015000000003     48.036600000000000
H      48.473199999999999     47.391475000000000     50.572600000000001
H      49.773699999999998     46.149635000000004     50.277099999999997
H      49.923600000000000     49.562144999999987     49.478900000000003
H      50.559399999999989     49.357064999999992     47.945100000000004
H      48.427599999999998     45.376885000000001     48.032500000000006
H      47.443399999999997     45.795384999999996     49.700900000000011
H      48.486499999999999     50.623114999999999     46.885700000000007
H      45.952199999999998     46.521045000000001     47.543100000000003
H      46.567899999999995     50.588065000000000     45.427399999999999
H      44.868299999999998     48.662434999999988     45.855499999999999
