22

C      49.286949999999997     49.136599999999994     45.753599999999999
C      49.442750000000004     50.131799999999998     47.079700000000003
C      48.370950000000008     48.008700000000005     45.825699999999998
C      49.275750000000002     49.394200000000012     48.487200000000001
C      47.638150000000010     47.739000000000004     47.231600000000000
C      48.257249999999999     48.128200000000007     48.415100000000010
C      46.889950000000013     46.450400000000002     47.334800000000001
C      48.217250000000007     47.359200000000001     49.699700000000007
C      46.366650000000007     46.169899999999998     48.596900000000005
C      46.992350000000002     46.733100000000007     49.848900000000000
H      50.253250000000008     48.612500000000011     45.341000000000008
H      49.086449999999999     49.917000000000002     45.114199999999997
H      48.655250000000009     50.780400000000000     46.530799999999999
H      50.432350000000000     50.599000000000004     46.946399999999997
H      47.630350000000007     47.624500000000012     45.109499999999997
H      48.748050000000006     46.997100000000003     45.990499999999997
H      48.901250000000005     50.148099999999999     49.490700000000004
H      50.255850000000009     49.093400000000003     48.954900000000009
H      46.699750000000009     45.756500000000003     46.431800000000010
H      48.696950000000001     47.729700000000008     50.640400000000000
H      45.567650000000000     45.219600000000000     48.584699999999998
H      46.714250000000007     46.297000000000011     50.890500000000003
