22

C      47.249399999999994     50.399649999999994     47.496149999999993
C      48.403700000000015     50.634849999999993     48.355350000000001
C      46.357700000000008     49.176549999999999     47.800349999999995
C      49.378200000000007     49.283949999999997     48.436250000000001
C      47.135200000000012     47.869050000000001     48.227450000000005
C      48.534400000000005     47.956449999999997     48.526550000000000
C      46.690300000000008     46.507449999999999     48.084950000000006
C      49.254500000000007     46.604349999999997     48.634850000000000
C      47.401700000000005     45.274450000000002     48.372550000000004
C      48.721000000000004     45.331650000000003     48.558049999999994
H      47.640500000000003     50.292450000000002     46.590450000000004
H      46.579300000000003     51.280050000000003     47.490449999999996
H      48.232300000000009     51.337449999999997     49.321349999999995
H      49.027000000000001     51.569150000000000     48.045649999999995
H      45.609200000000001     49.031550000000003     46.835849999999994
H      45.674600000000012     49.124650000000003     48.863349999999997
H      50.008400000000009     49.130249999999997     49.409549999999996
H      50.390799999999999     49.172249999999998     47.798050000000003
H      45.836100000000002     46.072450000000003     47.634950000000003
H      50.273899999999998     46.681750000000001     48.920050000000003
H      46.934500000000000     44.430850000000000     48.014849999999996
H      49.430199999999999     44.507650000000005     48.856750000000005
