7

C      47.528149999999989     46.559949999999994     48.532799999999988
H      48.620750000000001     48.643149999999991     47.342300000000002
H      48.119549999999997     50.250050000000002     47.225699999999996
H      47.065449999999998     47.486649999999997     46.717500000000001
N      47.916550000000001     47.400950000000009     47.428899999999999
O      47.322249999999997     45.749949999999998     49.282499999999999
O      48.934550000000002     49.937749999999994     47.810199999999995
