22

C      48.203249999999997     46.723549999999996     49.307649999999995
C      49.257950000000001     46.025450000000006     47.985150000000004
C      48.123350000000009     49.062449999999998     50.165050000000001
C      48.813850000000009     49.926150000000007     46.776150000000008
C      47.834949999999999     48.123950000000008     48.947949999999999
C      48.909250000000007     47.420749999999998     48.095050000000008
C      46.675350000000002     48.650950000000009     48.305250000000008
C      49.025950000000002     48.274950000000004     46.869250000000001
C      46.625850000000007     49.118750000000006     47.011950000000006
C      47.910050000000005     48.968750000000000     46.144850000000005
H      48.779750000000000     46.587249999999997     50.330350000000003
H      48.806050000000006     48.713149999999999     50.992849999999997
H      50.316949999999999     46.307150000000007     47.864350000000009
H      49.198650000000008     45.211449999999999     47.263449999999999
H      47.195650000000008     49.586750000000009     50.559050000000006
H      48.627850000000002     50.016350000000003     50.019250000000007
H      48.411149999999999     50.788550000000001     46.259150000000005
H      49.549250000000008     50.144149999999996     47.462750000000007
H      45.683050000000001     48.456150000000008     48.795450000000002
H      49.675249999999998     47.985349999999997     46.176150000000000
H      45.733550000000001     49.585250000000002     46.467250000000000
H      47.896750000000004     49.004850000000005     45.007150000000003
