22

C      46.082699999999988     46.764055499999991     48.699199999999990
C      47.302400000000006     45.624055499999997     48.495300000000000
C      46.022199999999998     48.085955499999997     47.954599999999999
C      48.574500000000000     46.397855499999991     48.262599999999999
C      47.371899999999997     48.222155500000000     47.206600000000002
C      48.735500000000002     47.692055499999995     47.580900000000000
C      47.324799999999996     49.539655499999995     46.842100000000002
C      49.965099999999993     48.508055499999998     47.405799999999999
C      48.503799999999998     50.446855499999998     46.729199999999999
C      49.838099999999997     49.797255499999991     46.835599999999999
H      45.152400000000000     46.097755500000005     48.765300000000003
H      45.690500000000000     46.993455499999996     49.777400000000000
H      46.831000000000003     45.448855499999993     47.501899999999999
H      47.244299999999996     44.690355499999995     49.211800000000004
H      45.652900000000002     49.073455499999994     48.341300000000004
H      45.123499999999993     48.102255499999998     47.338200000000001
H      49.452399999999997     45.959855500000003     47.560499999999998
H      49.207499999999996     45.947555499999993     49.095199999999998
H      46.469899999999996     50.435355500000000     46.775800000000004
H      50.651399999999995     47.769755500000002     46.960900000000002
H      48.504899999999992     51.309644500000005     46.222600000000000
H      50.876500000000007     50.041255500000005     46.608800000000002
