34

C      46.342349999999989     44.862249999999989     49.334650000000003
C      45.847250000000003     46.397950000000009     49.750950000000003
C      50.095649999999999     47.669849999999997     48.882950000000008
C      47.454650000000001     45.997150000000005     49.583050000000000
C      45.327050000000000     47.319850000000002     48.615949999999998
C      48.759649999999993     48.047449999999998     48.169950000000000
C      46.942149999999998     48.531849999999991     46.760550000000009
C      47.653149999999997     47.186049999999994     48.714650000000006
C      46.446649999999991     47.698650000000001     47.893450000000001
C      50.460850000000008     49.813050000000004     50.610150000000004
C      49.371350000000000     50.648250000000004     50.071849999999998
C      50.768549999999998     48.518050000000002     49.850250000000003
C      49.799749999999989     51.519350000000003     49.102950000000007
C      48.311549999999997     48.797150000000002     46.987549999999999
C      47.949249999999992     50.095150000000004     50.320350000000005
C      50.299849999999999     46.120850000000004     48.572350000000000
C      46.479450000000000     49.542050000000003     45.594750000000005
H      45.441150000000000     46.555750000000003     50.757649999999998
H      44.298749999999998     47.863749999999996     48.725250000000003
H      48.108649999999997     45.900449999999992     50.348050000000001
H      51.234049999999996     50.332049999999995     51.274349999999998
H      51.701250000000002     48.239949999999993     50.369950000000003
H      49.140550000000005     49.308050000000009     46.325150000000008
H      47.209549999999993     50.830749999999995     49.862050000000011
H      48.315649999999998     49.433049999999994     51.061350000000004
H      47.872450000000001     49.310949999999991     49.603050000000010
H      49.452249999999999     45.554850000000002     47.999350000000007
H      51.249849999999995     46.656849999999991     47.957450000000009
H      50.977750000000000     45.492949999999993     48.972750000000005
H      45.536450000000002     49.378750000000011     45.543750000000003
H      46.534750000000003     50.640149999999991     45.708849999999998
H      47.057650000000010     49.429649999999995     44.725650000000002
O      50.551349999999999     52.138450000000006     48.533450000000002
O      46.002650000000003     43.861549999999994     48.845750000000010
