22

C      45.674099999999996     47.436899999999994     48.862984999999995
C      46.639200000000002     46.973299999999995     50.187784999999998
C      46.122400000000006     47.322299999999998     47.349084999999995
C      47.988400000000006     46.883499999999998     49.767584999999997
C      47.611700000000006     47.938800000000008     47.262284999999999
C      48.363700000000001     47.646000000000008     48.463184999999996
C      48.239500000000000     48.745899999999999     46.272194999999996
C      49.708700000000000     48.189900000000002     48.645885000000000
C      49.530999999999999     49.485999999999997     46.460014999999999
C      50.279400000000003     49.109099999999991     47.595185000000001
H      45.471500000000006     48.559499999999993     49.308684999999990
H      44.794699999999999     46.832999999999998     48.982785000000000
H      46.456000000000010     46.013700000000000     50.710685000000005
H      46.401700000000005     47.647900000000000     50.693584999999999
H      45.569700000000005     47.604700000000001     46.622785000000000
H      45.922000000000004     46.402699999999996     47.053654999999999
H      48.066700000000004     45.769900000000000     49.368784999999995
H      48.518800000000006     47.390000000000001     50.718285000000002
H      47.762000000000008     48.971100000000000     45.281714999999998
H      50.390900000000009     47.694899999999997     49.417385000000003
H      49.825200000000002     50.230100000000000     45.818624999999997
H      51.205300000000001     49.440100000000008     47.643385000000002
