21

C      47.223949999999995     49.114899999999992     45.893449999999994
C      48.738849999999999     48.821500000000000     45.955250000000007
C      46.868250000000003     47.582400000000000     46.417950000000005
C      49.374750000000006     48.792200000000001     47.119550000000004
C      47.234750000000005     47.472999999999999     48.010549999999995
C      48.491249999999994     48.111499999999999     48.195650000000001
C      46.641949999999994     46.638400000000004     49.014449999999997
C      49.182550000000006     47.828200000000002     49.504949999999994
C      46.932550000000006     46.742899999999999     50.468750000000000
C      48.388649999999998     47.175300000000000     50.403149999999997
H      46.937749999999994     48.893200000000000     44.815849999999998
H      46.686650000000000     49.868200000000002     46.452550000000002
H      49.323049999999995     49.517900000000004     45.087149999999994
H      48.844049999999996     47.890000000000001     45.072950000000006
H      45.752250000000004     47.045800000000000     46.225549999999998
H      47.092449999999999     46.630200000000002     45.922650000000004
H      50.376850000000005     49.184000000000005     47.362049999999996
H      45.623149999999995     46.131799999999998     48.590649999999997
H      50.318749999999994     47.948500000000003     49.509450000000001
H      46.125050000000002     46.967600000000004     51.051649999999995
H      48.884249999999994     46.603000000000002     51.184150000000002
