5

C      47.978249999999989     47.559599999999989     48.334499999999998
H      46.992649999999998     47.238199999999999     48.779600000000002
H      49.007350000000002     47.555399999999999     48.586699999999993
H      48.008250000000004     48.849200000000003     47.947500000000005
H      47.785650000000004     47.150799999999997     47.220399999999998
