22

C      47.943999999999981     46.266549999999995     45.996749999999992
C      46.552399999999992     46.330549999999995     46.805250000000001
C      49.078099999999992     46.891849999999998     46.794450000000012
C      46.174099999999996     47.860250000000001     47.175450000000012
C      48.662700000000001     47.868150000000007     48.019950000000009
C      47.371600000000001     48.520050000000005     48.082650000000001
C      49.827299999999994     47.889149999999994     48.883050000000011
C      47.415300000000002     49.556249999999999     49.108550000000008
C      49.622000000000000     48.750250000000001     49.995450000000005
C      48.472299999999990     49.701850000000000     50.049450000000007
H      48.033699999999996     45.457850000000001     45.370050000000006
H      47.949699999999993     47.169149999999995     45.312950000000001
H      46.284899999999993     45.704550000000005     47.659050000000008
H      45.741099999999989     45.900349999999996     46.212150000000008
H      49.760700000000000     47.723850000000006     46.433550000000011
H      49.816299999999998     45.994750000000003     47.115650000000002
H      45.156300000000002     47.865749999999998     47.695450000000008
H      46.198599999999999     48.369250000000001     46.161349999999999
H      50.843699999999998     47.537249999999993     48.512250000000009
H      46.580999999999989     50.206849999999996     48.859850000000009
H      50.536599999999993     49.137650000000001     50.629350000000002
H      48.702500000000001     50.542149999999999     50.687049999999999
