22

C      48.319599999999994     50.632299999999994     48.406462999999995
C      49.685200000000002     49.783099999999997     48.662063000000003
C      47.425100000000000     49.971499999999999     47.359662999999998
C      49.962699999999998     48.237899999999996     48.393362999999994
C      47.401499999999999     48.372599999999998     47.549162999999993
C      48.442300000000003     47.654299999999999     48.096362999999997
C      46.451000000000001     47.365299999999998     46.891563000000005
C      48.544499999999992     46.171999999999997     48.291462999999993
C      46.543300000000002     45.964399999999998     47.041462999999993
C      47.481099999999998     45.266900000000000     47.915362999999999
H      48.487900000000003     51.655200000000001     47.944563000000002
H      47.617600000000003     50.872200000000007     49.167919000000005
H      50.051299999999998     50.000799999999998     49.690537000000006
H      50.434600000000010     50.114199999999997     47.892562999999996
H      46.483400000000003     50.538199999999996     47.102163000000004
H      48.116900000000001     49.649099999999997     46.309462999999994
H      50.518399999999993     47.716000000000001     49.216569000000007
H      50.646200000000000     48.027099999999997     47.523662999999999
H      45.353800000000000     47.595500000000001     46.501563000000004
H      49.617700000000006     45.941400000000002     48.750263000000004
H      45.851399999999998     45.288399999999996     46.733463000000000
H      47.194299999999998     44.344799999999999     48.283362999999994
