45

C      48.723099999999988     48.037399999999991     47.828199999999995
C      47.265799999999992     48.044499999999999     48.142300000000006
C      47.968100000000000     43.603999999999999     49.282400000000010
C      49.437299999999986     46.756599999999992     47.816000000000003
C      46.526299999999999     46.972499999999997     48.631500000000003
C      49.102499999999999     44.353699999999989     48.719900000000010
C      48.586699999999993     45.644399999999990     48.266700000000000
C      47.177799999999998     45.700899999999990     48.802000000000007
C      49.508699999999997     49.301199999999994     47.439500000000010
C      48.649899999999995     50.515900000000002     47.270099999999999
C      47.236699999999992     50.426199999999994     47.644700000000000
C      46.397399999999998     49.380799999999994     48.152700000000010
C      50.653299999999994     48.850299999999990     46.562100000000001
C      51.424399999999999     49.908599999999993     46.060100000000006
C      50.799799999999998     51.207999999999998     46.175700000000006
C      49.364099999999986     51.508099999999999     46.646000000000001
C      51.457000000000001     47.569099999999992     46.845600000000005
C      50.882799999999996     46.394700000000000     47.481400000000008
C      51.259200000000000     44.950299999999999     47.734500000000011
C      50.469199999999994     44.058199999999999     48.427600000000012
C      44.842599999999997     46.972200000000001     48.937900000000013
C      45.142399999999995     49.396399999999986     48.886300000000006
C      51.367399999999996     52.409499999999994     45.880700000000004
C      51.880800000000001     47.082700000000003     48.398100000000014
C      44.102799999999995     45.732399999999998     48.854900000000001
C      44.548899999999996     46.627200000000002     47.564000000000007
H      46.294899999999991     44.024900000000002     50.326200000000000
H      48.163499999999992     42.501800000000003     49.588600000000014
H      47.009200000000000     51.474899999999991     47.281700000000001
H      52.405899999999995     49.792299999999997     45.744000000000000
H      48.915799999999997     52.557499999999990     46.750900000000001
H      52.278900000000000     47.429999999999993     46.252300000000005
H      52.154199999999996     44.869500000000002     47.195600000000013
H      50.813499999999998     43.177499999999995     48.714100000000016
H      44.611199999999990     50.357699999999994     48.819900000000004
H      51.455399999999990     47.855400000000003     49.063800000000001
H      52.847900000000003     46.802499999999995     48.459200000000010
H      43.193399999999990     45.847899999999996     49.501800000000003
H      44.696099999999994     44.878199999999993     49.168300000000002
H      43.592499999999994     47.170499999999990     47.281900000000007
H      44.923199999999994     45.762400000000000     46.983400000000003
H      43.152099999999997     48.755499999999998     49.651800000000009
N      46.855699999999992     44.361599999999996     49.477400000000003
N      44.425799999999995     48.437299999999993     49.569200000000009
O      51.567299999999996     53.498199999999997     45.673800000000000
