9

C      47.704399999999993     48.462099999999992     48.029899999999998
C      48.459499999999998     47.434000000000005     48.992900000000006
C      46.853600000000000     48.327400000000004     46.894500000000008
H      49.437199999999997     47.904299999999999     49.314800000000005
H      46.743800000000000     48.905499999999996     45.923699999999997
H      48.100800000000000     49.440800000000003     47.666700000000006
H      47.997000000000007     47.304400000000001     50.076300000000003
H      48.877000000000002     46.559199999999997     48.502499999999998
H      46.562800000000003     47.335400000000000     46.322299999999998
