22

C      47.563400000000001     45.848749999999995     48.531949999999995
C      49.752300000000005     46.153150000000004     47.382050000000007
C      46.396400000000000     46.784249999999993     47.979749999999996
C      48.937100000000001     46.747149999999998     48.652749999999997
C      47.078000000000003     47.948749999999997     47.522850000000005
C      48.474900000000005     48.104350000000004     47.943449999999999
C      46.495300000000000     48.811749999999996     46.603149999999999
C      49.192800000000005     49.333549999999995     47.717349999999996
C      47.065500000000000     50.122949999999996     46.305149999999998
C      48.386099999999999     50.247549999999997     46.901650000000004
H      49.272100000000009     45.642850000000003     46.539950000000005
H      47.427000000000007     45.652049999999996     49.694850000000002
H      48.093999999999994     44.914750000000005     47.963449999999995
H      50.280799999999999     46.948450000000001     46.816450000000003
H      50.508299999999991     45.338649999999994     47.820750000000004
H      45.738500000000002     46.731550000000006     48.845749999999995
H      45.671599999999998     46.476850000000006     47.156549999999996
H      49.409099999999995     46.687750000000001     49.326449999999994
H      45.491700000000009     48.490950000000005     46.607849999999999
H      50.244700000000009     49.560549999999999     47.951849999999993
H      46.762000000000000     51.085249999999995     46.682050000000004
H      49.142200000000003     50.839949999999995     46.686650000000000
