27

C      45.759999999999991     46.359649999999995     46.904599999999995
C      46.205700000000000     47.880049999999997     47.324299999999994
C      47.998799999999996     47.627650000000003     50.399000000000001
C      47.139900000000004     48.986050000000006     50.159900000000007
C      49.182499999999997     47.949749999999995     49.411699999999996
C      46.278600000000004     49.129649999999998     48.772599999999997
C      48.628700000000002     48.423850000000002     48.094499999999996
C      47.198000000000000     48.874349999999993     47.633499999999998
C      49.845000000000006     48.181049999999999     47.329599999999999
C      47.366000000000007     49.547349999999994     46.312600000000003
C      49.785599999999995     49.000950000000003     46.064700000000002
C      48.671900000000001     49.695750000000004     45.636200000000002
H      45.824199999999998     46.203550000000000     45.924099999999996
H      46.677399999999999     45.914450000000002     47.188400000000001
H      45.158600000000000     48.191450000000003     47.441100000000006
H      44.893499999999996     45.690449999999998     47.365600000000001
H      48.395999999999994     47.476250000000000     51.300500000000000
H      47.308299999999996     46.922449999999998     50.039600000000007
H      47.470599999999997     49.895150000000001     50.553700000000006
H      49.799799999999998     46.954350000000005     49.201899999999995
H      50.002699999999997     48.616349999999997     49.950199999999995
H      45.314000000000000     49.672650000000004     48.824399999999997
H      46.339800000000004     49.060549999999992     50.766300000000001
H      50.437300000000000     47.491249999999994     47.613100000000003
H      46.410299999999999     50.138550000000002     46.010000000000005
H      51.106500000000004     48.894450000000006     45.759299999999996
H      48.423200000000001     50.309550000000002     44.699500000000000
