60

C      48.287349999999989     46.320999999999991     48.990499999999997
C      48.672450000000012     46.658300000000004     50.356800000000007
C      46.038049999999998     50.627800000000001     49.188000000000002
C      47.385350000000003     47.186199999999999     48.210200000000000
C      48.146550000000005     47.946400000000004     50.900599999999997
C      45.907350000000008     49.322800000000001     48.427899999999994
C      46.891350000000003     50.282400000000003     50.308800000000005
C      47.121850000000009     48.535000000000011     48.618800000000007
C      47.485650000000007     48.967600000000004     50.172200000000004
C      49.044449999999998     45.200600000000001     48.367800000000003
C      50.155450000000002     44.712899999999998     49.323599999999999
C      49.840649999999997     44.727200000000003     51.698999999999998
C      49.747250000000008     45.525399999999998     50.554800000000000
C      48.869450000000001     44.521300000000004     47.033799999999999
C      49.705650000000006     43.362200000000001     46.523399999999995
C      50.656350000000003     43.202400000000004     47.563100000000006
C      51.016250000000014     43.746499999999997     48.927099999999996
C      45.885050000000007     46.963100000000011     46.080200000000005
C      45.026550000000000     48.188100000000006     46.391400000000004
C      45.061250000000001     49.373999999999995     47.257900000000006
C      45.414550000000006     47.832200000000000     44.963099999999997
C      44.656649999999999     47.416799999999995     43.853600000000000
C      44.701450000000008     48.861000000000004     48.920500000000004
C      43.029850000000010     48.160200000000003     43.351200000000006
C      47.338650000000001     47.041899999999998     46.672700000000006
C      45.285750000000007     51.996499999999997     49.011200000000002
C      48.556950000000015     44.805799999999998     52.644800000000004
C      52.517750000000007     45.213999999999999     51.394800000000004
C      50.975050000000010     45.644199999999998     51.418499999999995
H      45.835750000000004     53.679099999999998     50.986599999999996
H      45.990049999999997     44.793300000000002     46.531099999999995
H      44.354650000000007     45.260100000000001     46.346999999999994
H      44.319650000000010     53.488900000000001     50.459800000000001
H      48.424050000000008     48.191900000000004     51.913499999999999
H      47.072150000000008     50.901200000000003     51.154799999999994
H      49.724950000000007     43.044600000000003     45.590500000000006
H      51.096050000000005     42.320900000000002     47.146200000000007
H      51.998750000000015     43.251600000000003     49.347300000000004
H      45.298950000000005     50.413200000000003     46.788300000000007
H      46.244450000000001     48.396900000000002     44.518900000000002
H      45.279550000000000     47.080800000000004     42.787999999999997
H      44.579850000000008     46.255400000000002     43.910100000000000
H      43.979050000000001     49.573700000000002     49.352800000000002
H      44.812750000000008     47.825900000000004     49.128299999999996
H      42.852150000000009     47.670500000000004     42.337100000000007
H      42.851250000000007     49.264699999999991     43.735799999999998
H      42.652349999999998     47.676400000000001     44.224299999999999
H      47.823750000000004     48.027700000000010     46.222600000000000
H      45.405050000000003     52.432600000000008     48.092200000000005
H      44.202350000000010     51.783900000000003     48.672300000000007
H      48.688350000000000     44.371499999999997     53.662899999999993
H      48.773750000000007     45.870600000000003     53.039199999999994
H      47.524850000000001     44.447200000000002     52.070700000000002
H      53.347650000000002     45.714300000000001     52.002800000000008
H      52.616450000000015     44.070999999999998     51.296300000000002
H      52.878050000000002     45.700699999999998     50.491500000000002
H      50.783150000000006     46.760400000000004     51.460200000000000
N      45.208449999999999     52.953299999999999     50.400300000000001
N      45.361750000000001     45.519199999999998     45.977599999999995
S      48.288150000000002     45.486000000000004     45.629300000000001
