6

C      47.987699999999990     47.371849999999995     48.232449999999986
C      47.640300000000003     48.667949999999990     47.837550000000007
H      47.689000000000000     46.664050000000003     49.028350000000003
H      47.106699999999996     49.335949999999997     48.526849999999996
H      48.033099999999997     49.284549999999996     46.971649999999997
H      48.893300000000004     47.058049999999994     47.652649999999994
