73

C      45.830099999999995     47.184399999999997     46.695049999999995
C      45.223300000000002     45.771000000000001     44.455850000000005
C      49.588200000000001     45.712399999999995     43.727750000000000
C      48.547300000000007     44.897500000000001     42.910150000000002
C      47.338099999999997     47.090100000000000     46.344749999999998
C      44.893799999999999     46.378499999999995     45.868249999999996
C      49.079799999999999     46.040500000000002     44.994650000000000
C      47.057400000000001     45.014299999999999     42.991250000000001
C      47.559800000000010     46.272700000000000     45.136649999999996
C      46.665099999999995     45.546999999999997     44.219950000000004
C      45.591999999999999     47.771000000000008     48.032649999999997
C      44.705300000000001     47.380999999999993     49.059750000000001
C      44.451300000000003     44.642699999999998     49.584350000000008
C      44.100099999999998     45.976599999999998     49.366750000000003
C      50.975800000000007     45.842599999999997     43.410850000000003
C      51.386299999999999     44.887599999999999     42.395050000000005
C      50.445899999999995     44.443300000000001     41.420049999999996
C      48.970299999999995     44.618099999999998     41.543749999999996
C      46.246699999999997     49.079200000000000     48.143750000000004
C      46.132800000000003     49.180000000000000     49.791249999999998
C      43.024500000000003     45.023400000000002     49.060750000000006
C      44.996499999999997     48.277499999999996     50.251750000000001
C      47.747699999999995     48.603200000000008     46.255749999999999
C      47.256200000000000     49.542800000000000     47.298350000000006
C      46.911200000000008     50.963200000000001     46.723950000000002
C      47.509999999999991     52.411300000000004     47.236350000000002
C      48.782799999999995     49.386099999999999     47.538450000000005
C      47.437800000000010     49.146000000000001     44.749150000000000
C      44.450099999999999     49.577900000000007     50.139350000000000
C      52.579999999999998     44.487600000000000     42.037550000000003
C      45.727600000000002     44.176899999999996     50.220950000000002
C      46.503599999999999     45.266700000000000     51.020150000000008
C      45.013300000000001     47.478100000000005     51.659550000000003
C      45.695000000000000     46.105600000000003     52.024549999999998
C      46.470300000000002     47.223999999999997     52.427550000000004
C      44.981499999999997     45.453600000000002     53.106950000000005
C      46.621000000000009     47.697099999999999     53.786250000000003
C      44.705700000000000     46.108300000000000     54.333549999999995
C      45.610199999999999     47.277899999999995     54.753049999999995
H      43.822699999999998     45.900799999999997     46.069449999999996
H      46.249299999999998     44.688499999999998     42.265250000000002
H      51.739400000000003     46.398600000000002     44.028250000000000
H      51.011800000000008     44.333199999999998     40.197250000000004
H      48.291800000000009     44.572099999999999     40.684850000000004
H      46.905199999999994     49.125399999999999     50.459949999999999
H      47.659500000000001     46.494500000000002     47.377249999999997
H      46.304000000000002     43.654000000000003     49.259250000000002
H      46.540900000000001     51.115400000000001     45.636649999999996
H      45.886000000000003     50.884200000000000     47.358049999999999
H      48.287399999999998     52.589300000000001     48.054850000000009
H      46.533299999999997     52.746900000000004     47.665849999999999
H      47.645499999999998     52.670700000000004     46.173549999999999
H      49.194600000000008     50.354499999999994     47.199750000000002
H      49.040300000000002     48.695600000000006     48.338349999999998
H      48.396299999999997     48.885300000000001     44.143949999999997
H      46.680199999999999     48.431499999999993     44.155350000000006
H      47.314899999999994     50.320999999999998     44.533750000000005
H      44.096600000000002     49.971899999999998     49.257950000000001
H      44.705100000000002     50.483899999999998     50.825449999999996
H      52.932800000000000     43.811999999999998     41.295150000000000
H      53.340299999999999     44.645299999999999     42.790349999999997
H      45.582700000000003     43.253099999999996     50.715350000000001
H      47.480800000000002     48.086099999999995     54.173750000000005
H      46.821399999999997     45.811299999999996     50.110049999999994
H      47.544200000000004     44.806800000000003     51.654450000000004
H      47.165500000000009     47.782299999999999     51.609749999999998
H      44.249699999999997     47.657000000000004     52.256850000000007
H      45.055399999999999     44.364500000000000     53.494450000000008
H      44.250399999999999     45.679600000000001     55.127550000000006
H      45.827800000000003     47.173299999999998     55.802749999999996
O      49.792299999999997     45.875300000000003     45.967149999999997
O      42.659700000000001     45.299900000000001     47.949649999999998
O      44.496099999999998     45.654400000000003     43.330050000000000
