18

C      45.696994999999987     47.967009999999995     49.180999999999990
C      45.545685000000006     45.667090000000002     47.939399999999992
C      47.342884999999995     48.406109999999998     49.325400000000002
C      45.511605000000003     46.953409999999998     48.148899999999998
C      48.623815000000008     47.903309999999998     49.580100000000002
C      47.535004999999998     49.892409999999998     49.159599999999998
C      49.703775000000007     48.799709999999997     49.674199999999999
C      48.961325000000002     50.036510000000000     49.289400000000001
H      46.267735000000002     46.726280000000003     45.851900000000001
H      45.418125000000003     48.896209999999996     48.774500000000003
H      45.364505000000008     47.669440000000002     50.148099999999999
H      45.824764999999999     44.976190000000003     48.699699999999993
H      45.302655000000001     45.113010000000003     46.944199999999995
H      48.765415000000004     46.895139999999998     49.998099999999994
H      46.813655000000011     50.546109999999999     48.883099999999999
H      50.697344999999999     48.763809999999999     49.780999999999992
H      49.602644999999995     51.023809999999997     49.049399999999991
S      46.065525000000008     47.862009999999998     46.514399999999995
