23

C      50.019059999999989     48.015349999999991     47.328599999999994
C      49.106959999999994     46.840450000000004     47.849699999999999
C      48.857449999999993     49.523949999999999     47.566199999999995
C      47.447859999999991     47.679249999999996     46.195899999999995
C      47.702779999999990     48.802049999999994     48.310299999999998
C      47.623019999999997     47.458050000000000     47.773699999999991
C      46.687349999999995     46.443449999999999     48.275599999999997
C      46.639129999999994     49.252150000000000     49.188000000000002
C      45.925284999999995     46.890850000000000     49.421899999999994
C      45.955427999999991     48.245649999999998     49.957099999999997
H      50.794569999999993     47.894750000000002     46.521000000000001
H      50.453519999999997     48.863150000000005     48.113599999999991
H      49.495889999999996     45.987549999999999     47.414800000000000
H      49.503949999999996     46.679150000000007     48.848299999999995
H      48.559619999999995     50.053749999999994     46.713399999999993
H      49.350239999999992     50.265550000000005     48.202099999999987
H      48.168629999999993     48.407150000000001     45.745199999999997
H      46.643059999999991     48.300250000000005     46.409599999999998
H      46.485179999999993     45.628450000000001     47.627899999999997
H      46.679959999999994     50.371549999999999     49.270599999999988
H      45.205430000000007     46.111850000000004     49.920399999999987
H      45.359430000000003     48.585549999999998     50.825299999999999
H      47.298669999999994     47.157650000000004     45.174700000000001
