22

C      50.004499999999993     47.953099999999992     46.762649999999994
C      50.120100000000008     46.798999999999999     47.898750000000000
C      49.265400000000000     49.234699999999997     47.201950000000004
C      48.543500000000009     46.295499999999997     48.316650000000003
C      48.283600000000007     48.632799999999996     48.192349999999998
C      48.008200000000002     47.348300000000002     48.934249999999999
C      47.283000000000001     49.712200000000003     48.429449999999996
C      46.782700000000006     47.345599999999997     49.546050000000001
C      45.999099999999999     49.664300000000004     48.996050000000004
C      45.714500000000001     48.360399999999991     49.623349999999995
H      51.120800000000003     48.259099999999997     46.539549999999998
H      49.919600000000003     47.703099999999999     45.671450000000000
H      50.771799999999999     47.092099999999995     48.698450000000001
H      50.866399999999999     45.953399999999995     47.461549999999995
H      49.824700000000007     50.088799999999999     47.573050000000002
H      48.658100000000005     49.751799999999996     46.305550000000004
H      48.404600000000002     45.251399999999997     48.978950000000005
H      48.339100000000002     46.170499999999997     47.295749999999991
H      47.551900000000003     50.748600000000003     48.272550000000003
H      46.725800000000007     46.284700000000001     49.659650000000006
H      45.414400000000001     50.572600000000001     49.473149999999997
H      44.879199999999997     48.069099999999999     50.328550000000000
