22

C      50.447999999999993     48.878349999999983     48.668949999999995
C      49.321199999999997     48.994250000000008     49.813349999999993
C      49.688399999999994     48.357650000000007     47.378950000000003
C      48.469000000000001     47.940849999999998     50.063250000000004
C      48.512300000000003     47.570849999999993     47.463349999999998
C      47.724699999999999     47.328450000000004     48.758150000000001
C      48.140499999999996     46.968949999999992     46.349049999999998
C      46.496699999999997     46.613749999999996     48.442450000000001
C      46.784199999999998     46.444949999999992     46.058150000000005
C      45.912399999999998     46.440150000000003     47.084049999999998
H      50.764000000000003     50.047250000000005     48.291649999999997
H      51.148199999999996     48.130049999999997     48.860950000000003
H      48.582200000000000     49.849450000000004     49.456449999999997
H      49.859500000000004     49.729050000000001     50.722250000000010
H      49.257799999999996     49.099149999999995     46.724850000000004
H      50.562899999999999     48.185550000000006     46.747350000000004
H      47.708499999999994     47.996849999999995     50.939349999999997
H      49.113599999999998     47.222250000000003     50.595450000000007
H      48.742699999999999     46.870549999999994     45.480150000000002
H      45.903100000000002     46.215949999999992     49.318150000000003
H      46.643700000000003     45.952749999999995     45.060650000000003
H      44.851800000000004     46.090549999999993     47.173150000000000
