22

C      50.421199999999985     47.986199999999990     47.196699999999993
C      49.785200000000003     49.129800000000003     46.163860000000000
C      49.470500000000001     46.872100000000003     47.815339999999992
C      48.281400000000005     49.526600000000002     46.844260000000006
C      48.019000000000005     47.287099999999995     48.321140000000000
C      47.406599999999997     48.455900000000000     47.598739999999992
C      47.367099999999994     46.733900000000006     49.498839999999987
C      46.058599999999998     48.793300000000002     48.154740000000004
C      46.004300000000001     47.104100000000003     49.910839999999993
C      45.364099999999993     48.200999999999993     49.292839999999998
H      51.440700000000007     47.648899999999998     46.973169999999996
H      50.798699999999997     48.466800000000006     48.099039999999988
H      49.331699999999998     48.603300000000004     45.283060000000006
H      50.524400000000000     49.872799999999998     45.924300000000002
H      49.905699999999996     46.433700000000002     48.714439999999996
H      49.204899999999995     46.079400000000007     47.058080000000004
H      47.612600000000000     49.960200000000000     46.267560000000003
H      48.462999999999994     49.945400000000006     47.818039999999996
H      47.977400000000003     46.039800000000000     50.034040000000005
H      45.693799999999996     49.854299999999995     47.955740000000006
H      45.501300000000001     46.537599999999998     50.716939999999994
H      44.559299999999993     48.732699999999994     49.786839999999998
