6

C      48.442549999999990     48.258749999999992     47.627599999999994
C      47.388549999999995     47.732450000000000     48.339500000000001
H      48.128649999999993     48.545549999999999     46.570200000000000
H      49.471649999999997     48.441150000000000     48.070599999999999
H      47.371849999999995     47.678950000000000     49.429800000000000
H      46.528350000000003     47.454450000000001     47.829299999999989
