22

C      47.729749999999996     46.777099999999997     46.902149999999992
C      46.151550000000000     47.059100000000001     46.307649999999995
C      47.560949999999998     47.676600000000001     49.144050000000007
C      46.036349999999999     48.578800000000001     46.558850000000007
C      47.757150000000003     48.045400000000001     47.776150000000001
C      47.190449999999998     49.213000000000008     47.135949999999994
C      48.962250000000004     47.880000000000010     49.903850000000006
C      48.770750000000000     49.143100000000004     46.873949999999994
C      50.094549999999998     48.431000000000012     49.070350000000005
C      49.962150000000001     48.798200000000008     47.756950000000003
H      48.501150000000003     46.975700000000003     46.203249999999997
H      47.420250000000003     45.888800000000003     47.308049999999994
H      45.739449999999998     47.229399999999998     45.161649999999995
H      45.469850000000001     46.624099999999999     46.824349999999995
H      46.945650000000001     48.485600000000005     49.505650000000003
H      47.139049999999997     46.675400000000003     49.211449999999999
H      44.998449999999998     48.662400000000005     47.138949999999994
H      45.911850000000001     48.896299999999997     45.478949999999998
H      49.489349999999995     48.189100000000003     50.838350000000005
H      48.966150000000006     50.111199999999997     46.105249999999998
H      51.001550000000002     48.251700000000000     49.771550000000005
H      50.832450000000001     48.876200000000004     47.279749999999993
