22

C      47.721149999999994     48.284134999999992     50.579799999999992
C      48.729649999999999     48.688144999999999     49.547400000000003
C      46.621050000000004     47.529325000000000     49.507600000000004
C      49.621950000000005     47.409635000000002     49.219000000000001
C      47.210850000000001     47.378945000000002     48.084099999999999
C      48.735350000000004     47.292574999999999     47.984900000000003
C      46.483350000000002     47.236764999999998     46.908499999999997
C      49.497750000000003     47.507784999999998     46.680299999999995
C      47.220149999999997     47.225135000000002     45.585500000000003
C      48.622850000000007     47.264735000000002     45.410000000000004
H      47.359950000000005     49.102245000000003     51.268399999999993
H      48.270350000000001     47.672714999999997     51.417300000000004
H      49.427650000000007     49.410824999999996     49.998100000000001
H      48.483750000000008     49.515165000000003     48.806000000000004
H      45.608150000000002     48.103974999999998     49.375700000000002
H      46.171150000000004     46.643394999999998     49.740800000000000
H      49.691049999999997     46.866774999999997     50.145800000000001
H      50.648850000000003     47.694504999999999     48.969299999999997
H      45.351149999999997     47.221634999999999     46.916400000000003
H      50.542350000000006     47.843425000000003     46.440300000000001
H      46.664250000000003     47.050824999999996     44.692900000000002
H      48.851350000000004     46.484834999999997     44.582699999999996
