20

C      47.945549999999997     45.570099999999996     48.104849999999992
C      47.728949999999998     47.818799999999996     49.561250000000001
C      49.402049999999988     46.412799999999990     48.306950000000001
C      48.294650000000004     46.370999999999995     49.314750000000004
C      48.060149999999993     49.171399999999991     49.162750000000003
C      47.091250000000002     48.477599999999995     48.294449999999998
C      48.756749999999997     50.177799999999991     48.374250000000004
C      46.506550000000004     48.806299999999993     47.006950000000003
C      48.105649999999997     50.721599999999995     47.146550000000005
C      47.049650000000000     50.000100000000003     46.408249999999995
H      47.390050000000002     46.090299999999999     47.272350000000003
H      47.840350000000001     44.598500000000001     48.454849999999993
H      47.686650000000000     47.333799999999997     50.593850000000003
H      49.321249999999992     47.550599999999989     47.955050000000000
H      50.174450000000007     45.605400000000003     48.368150000000000
H      48.529949999999985     45.754499999999993     50.374349999999993
H      49.441249999999997     50.810699999999997     48.953649999999996
H      45.825549999999993     48.319099999999992     46.436350000000004
H      48.684550000000002     51.401499999999999     46.788650000000004
H      46.470749999999995     50.307999999999993     45.406149999999997
