59

C      48.902349999999998     45.642649999999989     43.381749999999997
C      48.322450000000011     45.103349999999999     44.581349999999993
C      47.328450000000011     47.714449999999992     49.916750000000000
C      46.950450000000011     48.994049999999994     50.428450000000005
C      43.086850000000005     48.556649999999998     47.981649999999995
C      46.249450000000003     46.969150000000006     49.244949999999996
C      45.612349999999999     49.637350000000005     50.380050000000004
C      44.043550000000003     47.514649999999996     47.977550000000001
C      43.239650000000005     49.455249999999999     49.214350000000003
C      44.972750000000012     47.627249999999997     49.111849999999997
C      44.521950000000011     49.043249999999993     49.735250000000001
C      48.777450000000009     47.120349999999995     50.002149999999993
C      49.795750000000005     48.060949999999998     50.525150000000004
C      49.471750000000007     49.524750000000004     51.065350000000002
C      48.056450000000005     49.866449999999993     51.100850000000001
C      49.137850000000007     46.411449999999995     48.841850000000001
C      50.421350000000011     46.515049999999995     48.210749999999997
C      51.514550000000007     47.278449999999999     48.788050000000005
C      51.202750000000002     47.927349999999997     49.970750000000002
C      47.963349999999998     45.446850000000005     48.333350000000003
C      46.425750000000001     45.645850000000003     48.528050000000000
C      50.505050000000004     49.860250000000001     52.072550000000000
C      50.349450000000012     51.185250000000003     52.536350000000006
C      49.059650000000012     51.838249999999995     52.001349999999995
C      47.978150000000007     51.202949999999994     51.442950000000003
C      45.189050000000002     50.671450000000000     51.217750000000002
C      46.319450000000010     51.729850000000006     51.222749999999998
C      45.430350000000011     45.231850000000001     47.446350000000002
C      44.149750000000004     46.165349999999997     47.088950000000004
C      45.895450000000004     44.896449999999994     46.116750000000003
C      46.912050000000001     45.750350000000005     45.142950000000006
C      52.959650000000003     47.450550000000000     48.272449999999999
C      45.625950000000010     44.035649999999997     48.109749999999998
H      48.391950000000001     46.387849999999993     42.712449999999997
H      49.835650000000008     45.404350000000001     43.055749999999996
H      48.742650000000005     44.306149999999995     45.269050000000000
H      42.351649999999999     48.706449999999997     47.263150000000003
H      42.684450000000005     50.275849999999998     49.393750000000004
H      50.687249999999999     46.084849999999996     47.246649999999995
H      51.802450000000000     48.624149999999993     50.252249999999997
H      51.353950000000005     49.121249999999996     52.220549999999996
H      51.100349999999999     51.507950000000001     53.287550000000003
H      49.040950000000002     52.978249999999996     52.519550000000002
H      44.140750000000004     50.970049999999993     50.915249999999993
H      45.207850000000001     50.148850000000003     52.246749999999999
H      46.494050000000009     52.678249999999998     51.673350000000006
H      45.702350000000003     52.248349999999995     50.450849999999996
H      44.671450000000000     46.686249999999994     46.308649999999993
H      43.061850000000000     45.830850000000005     46.362649999999995
H      45.360050000000008     44.208750000000002     45.734649999999995
H      47.011250000000011     44.300549999999994     46.332050000000002
H      47.302150000000005     46.684949999999994     45.713749999999997
H      46.481250000000010     45.897050000000000     44.252050000000004
H      53.648350000000001     47.404549999999993     49.028050000000000
H      53.365150000000007     48.710249999999995     48.236749999999994
H      53.073350000000012     47.477250000000005     47.035350000000001
H      45.026150000000008     43.809750000000001     48.988949999999996
H      45.991850000000007     43.021750000000004     47.478950000000005
O      48.700350000000007     44.621549999999992     47.808550000000004
