22

C      46.999849999999995     45.495399999999989     47.740299999999998
C      47.055349999999997     46.502200000000002     49.120800000000003
C      47.179949999999998     46.911299999999997     46.778600000000004
C      49.001749999999994     48.367699999999999     46.277800000000006
C      48.011449999999989     48.049700000000001     47.235300000000002
C      48.083449999999992     47.541899999999998     48.673400000000008
C      48.086549999999995     49.756100000000004     47.007600000000004
C      48.692949999999989     48.352900000000005     49.745700000000006
C      48.629749999999994     50.253100000000003     48.315000000000005
C      49.005449999999989     49.742699999999999     49.540500000000009
H      46.443849999999991     44.901799999999994     47.123100000000008
H      48.016249999999992     44.776499999999999     47.519200000000005
H      45.932150000000000     46.891999999999996     49.341800000000006
H      47.571949999999994     45.904299999999992     50.113200000000006
H      47.553449999999991     46.527100000000004     45.716700000000003
H      46.093449999999997     47.320899999999995     46.467100000000002
H      50.067850000000000     47.917500000000004     46.768500000000003
H      49.020549999999993     47.969099999999997     45.361000000000004
H      47.290349999999997     50.207399999999993     46.525900000000007
H      48.609749999999998     47.853799999999993     50.638999999999996
H      48.808249999999994     51.223500000000001     47.953100000000006
H      49.333250000000000     50.055099999999996     50.440500000000007
