22

C      49.382184999999993     50.226399999999991     48.451299999999989
C      49.384284999999998     49.869399999999999     46.890900000000009
C      49.370784999999998     48.921800000000005     49.382899999999999
C      47.973284999999997     49.307199999999995     46.452500000000008
C      48.376484999999995     48.039100000000005     48.906700000000008
C      47.844684999999998     48.138599999999997     47.488400000000006
C      47.733284999999995     47.003100000000003     49.624500000000005
C      46.676884999999999     47.373800000000003     47.123899999999999
C      46.768184999999995     46.010499999999993     49.178800000000003
C      46.267184999999998     46.246700000000004     47.902099999999997
H      48.337684999999993     50.416799999999995     48.779800000000002
H      50.011684999999993     50.953900000000004     48.952300000000001
H      50.159884999999996     49.090099999999993     46.599400000000010
H      49.613184999999994     50.684299999999993     46.161800000000007
H      49.409784999999992     49.305499999999995     50.308200000000006
H      50.375785000000000     48.504900000000006     49.309199999999997
H      47.342784999999999     49.975899999999996     46.907600000000009
H      48.169984999999997     49.295900000000003     45.365900000000003
H      47.988785000000000     47.049400000000006     50.634099999999997
H      46.289384999999996     47.518500000000003     46.045800000000007
H      46.851584999999993     45.046099999999996     49.690599999999996
H      45.624215000000000     45.536100000000005     47.706700000000005
