20

C      45.766944999999993     47.599699999999999     46.079049999999995
C      47.070244999999993     48.222799999999992     45.899050000000010
C      49.898405000000004     45.898700000000005     48.412050000000001
C      47.860303000000002     48.528499999999994     47.097349999999999
C      49.756255000000003     47.191199999999995     49.012250000000002
C      49.283864999999999     47.448899999999995     47.624150000000007
C      49.473205000000000     48.838200000000001     47.333350000000003
C      49.788395000000001     48.031599999999997     50.076750000000011
C      49.837165000000006     49.802700000000002     48.422750000000001
C      49.939045000000000     49.408699999999996     49.685549999999999
H      45.352645000000003     47.589100000000002     47.034450000000000
H      45.094144999999990     47.364699999999999     45.326250000000009
H      47.413132000000004     48.053500000000000     44.873849999999997
H      50.905855000000010     45.298100000000005     48.606950000000005
H      49.089424999999999     45.174800000000005     48.252550000000006
H      47.384470000000000     49.033199999999994     47.739049999999999
H      49.962925000000006     49.083799999999997     46.408949999999997
H      49.629135000000012     47.687199999999990     51.126150000000003
H      50.005095000000004     50.825199999999995     48.083250000000000
H      50.071284999999996     50.161699999999996     50.481950000000005
