22

C      46.322949999999992     48.578049999999990     48.226749999999988
C      46.444450000000003     47.953749999999999     49.670150000000007
C      47.321350000000010     49.743350000000000     48.009950000000003
C      47.987150000000014     47.471349999999994     49.794550000000001
C      48.657550000000015     48.965449999999997     47.751850000000005
C      48.855650000000011     47.764749999999999     48.503850000000000
C      49.481050000000010     49.109949999999991     46.533050000000003
C      49.526250000000005     46.555949999999996     48.141050000000007
C      50.093950000000007     47.853649999999995     46.253650000000007
C      49.936550000000011     46.485249999999994     46.757149999999996
H      45.413049999999998     48.791849999999997     47.861350000000002
H      46.804350000000014     47.897849999999998     47.506850000000000
H      45.895550000000000     47.115049999999997     49.956550000000007
H      46.445850000000007     48.731649999999995     50.431049999999999
H      47.689550000000011     50.231549999999999     49.054749999999999
H      47.146650000000008     50.540150000000004     47.265650000000008
H      48.509050000000002     47.638249999999999     50.771050000000002
H      48.050150000000002     46.335149999999999     49.897250000000000
H      49.737250000000003     50.209649999999996     45.818650000000005
H      49.559350000000009     45.459849999999996     48.818349999999995
H      50.495150000000010     47.840349999999994     45.228949999999998
H      50.586950000000002     45.614049999999999     46.416750000000008
