23

C      49.705974499999996     48.683399999999999     48.832449999999994
C      47.031474500000002     46.672700000000006     50.312149999999995
C      48.338204500000003     46.163300000000007     50.061050000000002
C      46.895194500000002     48.126300000000001     49.970050000000008
C      49.235694500000001     46.982799999999997     48.806750000000001
C      47.086044500000000     48.477999999999994     48.564350000000005
C      48.376494500000000     47.863799999999998     48.031450000000000
C      46.512534500000001     49.537499999999994     47.919650000000004
C      48.788084500000004     48.194599999999994     46.698050000000002
C      46.901644500000003     49.861199999999997     46.579050000000002
C      47.845704500000004     48.958799999999997     45.896250000000002
H      46.343014500000002     45.910200000000003     49.897249999999993
H      46.683814500000004     46.429800000000000     51.258649999999996
H      48.130884500000001     45.240899999999996     49.636150000000008
H      48.885994500000002     45.869699999999995     50.939850000000000
H      47.545074499999998     48.842200000000005     50.879250000000006
H      45.921524500000004     48.381100000000004     50.349550000000001
H      50.044604499999998     46.483000000000004     48.061750000000004
H      45.521065499999999     49.831100000000006     48.103450000000002
H      49.824354499999998     47.844300000000004     46.274650000000001
H      46.156064499999999     50.759100000000004     46.353450000000002
H      47.855604499999998     48.933400000000006     44.741350000000004
O      50.478934500000001     49.477199999999996     48.960950000000004
