55

C      51.086469999999984     48.364899999999984     47.647949999999994
C      44.859965299999992     48.950599999999994     49.764549999999993
C      50.221469999999989     47.498999999999995     46.948050000000002
C      44.925289999999990     47.914800000000000     48.766650000000006
C      51.049299999999988     49.070999999999998     49.124749999999999
C      45.939759999999993     49.528199999999998     50.581250000000004
C      48.886509999999994     47.240099999999998     47.630850000000002
C      46.281419999999990     47.686899999999994     48.320150000000005
C      48.914139999999989     49.033599999999993     50.904850000000003
C      49.696169999999995     48.919299999999993     49.575250000000004
C      47.361919999999991     48.986300000000000     50.507550000000002
C      48.725579999999994     48.042199999999994     48.847349999999999
C      47.208989999999993     48.241699999999994     49.290350000000011
C      47.934439999999995     46.964900000000000     46.503450000000001
C      46.588759999999994     47.036799999999999     47.011950000000006
C      52.286059999999992     48.918499999999995     47.127450000000003
C      52.800349999999995     49.033899999999988     45.839150000000004
C      52.043129999999991     47.996399999999994     45.172850000000004
C      50.935609999999990     47.149899999999988     45.564550000000004
C      49.783829999999995     46.637099999999990     44.722340000000003
C      48.376369999999994     46.648099999999999     45.266550000000002
C      52.546209999999988     49.305700000000002     51.302150000000005
C      52.156969999999994     49.655199999999994     49.841550000000005
C      52.826359999999994     49.895799999999994     48.403449999999999
C      43.682659999999998     47.398600000000002     48.090450000000004
C      43.909560000000006     46.597200000000001     46.755150000000000
C      45.418439999999990     46.279399999999995     46.253149999999998
C      48.678989999999992     47.461699999999993     51.594450000000002
C      43.272959999999998     48.239599999999996     46.841450000000002
C      49.936349999999990     45.848999999999990     43.488869999999999
C      42.775260000000017     46.650899999999993     49.037350000000011
H      43.895960000000002     49.323399999999992     50.126650000000005
H      45.663952999999992     50.250099999999989     51.339550000000003
H      49.071939999999991     49.685800000000000     51.709150000000001
H      53.548509999999993     49.560099999999991     45.502250000000004
H      52.660069999999990     47.621699999999990     44.456350000000000
H      47.599129999999988     46.622900000000001     44.705019999999998
H      52.324349999999981     48.269599999999997     51.290349999999997
H      51.658769999999990     49.516499999999994     52.039949999999997
H      53.601609999999994     49.671999999999997     51.578250000000004
H      54.003139999999988     49.953899999999990     48.699550000000009
H      52.548099999999991     50.839900000000000     48.136650000000003
H      46.018059999999991     45.381199999999993     46.073150000000005
H      43.124560000000017     45.847699999999989     46.500550000000004
H      45.397387999999992     46.552899999999994     45.176150000000000
H      48.434819999999988     47.774799999999999     52.638550000000002
H      47.996109999999994     46.670599999999993     50.877650000000010
H      49.573339999999988     47.072099999999992     51.809249999999999
H      43.847659999999998     48.907299999999992     46.165450000000000
H      42.779560000000011     49.270099999999999     47.223649999999999
H      49.073249999999994     45.160100000000000     43.386070000000004
H      50.992509999999989     46.218599999999995     43.361449999999998
H      42.480059999999980     46.433700000000002     50.070249999999994
H      43.196060000000003     45.477300000000000     48.740850000000002
H      41.996860000000012     46.257700000000000     48.447550000000000
