22

C      45.509149999999984     47.917149999999985     47.205199999999991
C      45.416649999999990     47.719549999999998     48.798600000000008
C      46.702149999999989     48.496049999999997     46.550600000000003
C      46.767049999999998     47.033949999999990     49.353500000000011
C      48.162449999999993     48.340549999999993     47.292900000000003
C      47.988249999999994     47.570549999999997     48.517000000000010
C      49.344250000000002     48.976149999999990     46.614400000000003
C      49.306349999999995     47.375450000000001     49.007100000000008
C      50.535749999999993     48.586149999999989     47.149900000000002
C      50.583950000000002     47.675550000000001     48.295400000000015
H      44.743349999999992     48.745750000000001     46.713400000000007
H      45.004549999999995     47.010549999999995     46.642000000000010
H      44.457549999999998     47.325849999999988     49.108400000000017
H      45.274649999999994     48.718849999999989     49.314300000000003
H      46.439349999999990     49.598949999999988     46.623800000000003
H      46.893450000000001     48.304949999999991     45.604399999999998
H      46.991749999999996     47.471449999999990     50.395600000000002
H      46.694149999999993     45.861750000000001     49.413000000000011
H      49.318349999999995     50.138249999999999     46.081299999999999
H      49.530450000000002     47.122549999999990     49.950600000000009
H      51.388349999999988     48.940249999999992     46.541300000000007
H      51.542450000000002     47.342149999999990     48.715000000000003
