22

C      46.967949999999988     46.637399999999992     45.785949999999993
C      47.629450000000006     45.638800000000003     46.678650000000005
C      47.345450000000014     48.118899999999996     46.011550000000000
C      49.089849999999998     46.102300000000000     47.547950000000000
C      48.024850000000015     48.486199999999997     47.336050000000000
C      48.915050000000008     47.504599999999996     48.123450000000005
C      48.027450000000002     49.745499999999993     47.890950000000004
C      48.980850000000004     47.814099999999996     49.613849999999999
C      48.503850000000014     50.341999999999999     49.225049999999996
C      49.012450000000001     49.217399999999998     50.167850000000001
H      47.200450000000004     46.253500000000003     44.678150000000002
H      45.915149999999997     46.351299999999995     45.838449999999995
H      47.170650000000009     45.430999999999997     47.593950000000007
H      47.700550000000007     44.677899999999994     46.294150000000002
H      48.191550000000007     48.405699999999996     45.391249999999999
H      46.561650000000000     48.780400000000000     45.721750000000000
H      50.084850000000003     46.030900000000003     46.911550000000005
H      49.214250000000007     45.297200000000004     48.360849999999999
H      47.494450000000015     50.520299999999999     47.478049999999996
H      49.566150000000007     46.959699999999998     50.100949999999997
H      48.868450000000010     51.322100000000006     49.418549999999996
H      49.335250000000002     49.505399999999995     51.321849999999998
