22

C      49.808550000000004     46.918999999999990     48.370249999999999
C      50.497150000000005     48.185100000000006     48.749850000000002
C      48.480750000000000     49.875000000000000     47.909550000000003
C      50.133250000000004     49.746800000000007     48.395950000000006
C      48.427350000000004     47.226300000000009     47.850150000000006
C      47.841550000000012     48.543900000000008     47.509849999999993
C      47.497150000000005     46.105100000000007     47.369949999999996
C      46.554550000000006     48.794800000000009     46.690750000000001
C      46.174650000000000     46.386200000000002     46.852349999999994
C      45.693450000000013     47.710500000000010     46.488049999999994
H      49.773550000000000     46.309300000000007     49.282350000000001
H      50.199950000000001     46.629300000000001     47.487749999999998
H      51.468750000000000     47.919200000000004     48.132849999999998
H      51.230750000000000     47.963999999999999     49.624350000000000
H      48.232950000000002     50.941299999999998     47.353050000000003
H      47.983950000000007     50.210099999999997     48.916950000000007
H      50.744350000000011     50.125500000000002     47.651450000000004
H      50.173850000000002     50.472099999999998     49.256250000000001
H      47.665250000000000     45.058700000000002     47.082349999999998
H      46.223849999999999     49.819600000000008     46.576450000000001
H      45.464750000000009     45.701300000000003     46.425050000000006
H      44.531250000000000     47.865499999999997     46.375650000000000
