22

C      45.352799999999995     47.524686500000001     48.377099999999984
C      45.623800000000003     47.471086499999998     46.795200000000001
C      45.985399999999998     48.877986499999992     48.982899999999994
C      47.165700000000001     46.950586500000000     46.716799999999999
C      47.628600000000006     48.714786499999988     48.663499999999992
C      48.061999999999998     47.667086499999996     47.791999999999994
C      48.613299999999995     49.269786499999995     49.678400000000003
C      49.454700000000003     47.303486499999991     47.709899999999998
C      49.895300000000006     48.653086500000001     49.588000000000001
C      50.497500000000002     47.934586499999995     48.415799999999997
H      46.029799999999994     47.017586499999993     49.112599999999993
H      44.314099999999996     47.270186499999994     48.548300000000005
H      45.564500000000010     48.553886499999990     46.651699999999998
H      44.913200000000003     47.081186500000001     46.095800000000004
H      45.505499999999998     49.980441500000012     48.661600000000000
H      46.191299999999998     48.956286499999990     50.093799999999995
H      47.528499999999994     47.058786499999997     45.489799999999995
H      47.273400000000002     45.898886499999989     46.593499999999999
H      48.455500000000001     50.101113500000011     50.510200000000005
H      49.664200000000008     46.572486499999997     47.057600000000001
H      50.617999999999995     48.798986499999998     50.294099999999993
H      51.685900000000004     47.649986499999997     48.220800000000004
