48

C      49.482549999999989     49.792799999999986     46.825099999999992
C      49.568150000000003     50.917800000000000     45.931200000000004
C      44.380549999999999     49.440599999999989     47.706599999999995
C      43.805350000000004     49.881100000000004     46.331400000000002
C      48.256349999999998     49.194800000000001     47.438800000000001
C      48.238450000000000     51.411400000000000     45.559899999999999
C      44.661150000000006     50.857799999999997     45.592500000000001
C      46.870050000000006     49.746799999999993     47.201700000000002
C      47.088250000000002     50.728499999999997     46.104399999999998
C      50.561549999999997     48.758799999999994     47.171400000000006
C      51.950650000000010     49.195099999999996     46.554999999999993
C      52.033649999999994     50.587699999999998     45.791499999999999
C      50.939450000000008     51.382799999999989     45.428200000000004
C      51.080150000000003     47.146299999999997     49.122900000000001
C      48.759850000000000     48.400099999999995     48.553899999999999
C      50.230549999999994     48.231799999999993     48.546599999999998
C      50.303650000000005     45.682900000000004     49.499399999999994
C      51.708449999999999     50.676499999999990     44.225099999999998
C      50.853850000000008     44.122199999999992     49.316000000000003
C      51.033950000000004     46.474800000000002     50.526000000000010
C      50.081050000000005     46.575000000000003     51.709800000000001
C      50.968950000000007     47.910699999999991     46.028000000000006
C      45.858350000000002     51.528499999999994     45.699900000000000
H      43.028149999999997     49.338899999999995     45.959500000000006
H      43.780050000000003     48.785399999999996     48.445600000000013
H      48.312349999999995     52.206800000000001     44.807400000000001
H      43.970150000000004     50.898899999999998     44.834500000000006
H      52.971850000000003     48.770899999999997     46.801199999999994
H      52.944750000000013     51.039099999999991     46.171899999999994
H      51.201950000000011     52.539600000000007     45.506399999999999
H      48.114850000000004     47.775399999999991     49.207200000000000
H      52.153949999999995     47.126399999999990     48.660200000000003
H      45.822850000000003     48.730099999999993     48.812299999999993
H      49.328749999999999     45.769700000000000     48.809899999999999
H      51.429350000000014     51.450600000000009     43.404399999999995
H      51.662050000000008     49.569599999999994     43.802700000000002
H      50.023750000000007     43.460399999999993     48.880900000000011
H      51.242149999999995     43.644800000000004     50.279899999999998
H      51.877550000000014     44.071500000000000     49.071399999999997
H      52.148650000000004     46.063899999999990     50.777199999999993
H      50.697350000000014     46.467399999999998     52.595600000000005
H      49.203450000000004     45.979900000000001     52.095300000000009
H      49.698150000000012     47.783400000000000     51.550900000000013
H      50.433549999999997     46.861800000000002     45.849400000000003
H      50.262450000000001     48.199599999999990     45.271799999999999
H      46.053449999999998     52.262900000000002     44.897599999999997
H      45.915350000000004     52.243099999999998     46.740200000000002
N      45.725549999999998     49.350499999999997     47.974599999999995
