35

C      46.544099999999986     50.271499999999989     46.118949999999998
C      48.786499999999997     49.605500000000006     45.708450000000006
C      47.817799999999998     49.972200000000001     46.973050000000008
C      48.763199999999991     48.419600000000003     44.753050000000009
C      50.119599999999998     49.971800000000002     45.745250000000006
C      49.984099999999991     48.544300000000007     43.968350000000008
C      51.018699999999988     49.316500000000005     44.750850000000007
C      46.064199999999992     45.522199999999998     51.814350000000012
C      44.926099999999998     46.475200000000001     51.702450000000006
C      47.656399999999998     45.924599999999998     51.431650000000012
C      44.645299999999999     47.061700000000002     50.280650000000009
C      47.368699999999997     46.957300000000004     50.232150000000011
C      46.120199999999990     47.387200000000007     49.663150000000009
C      47.250999999999998     48.766199999999998     47.975350000000006
C      46.003499999999995     48.315100000000001     48.460450000000002
C      48.524999999999999     47.279100000000000     49.328950000000006
C      48.623100000000001     48.250699999999995     48.408150000000006
H      46.259799999999991     51.183700000000002     45.510150000000003
H      45.580499999999994     49.552300000000002     46.065350000000002
H      47.856999999999992     47.736100000000008     44.969150000000006
H      50.600900000000003     50.714500000000015     46.514350000000015
H      50.438599999999994     47.950600000000009     43.048650000000002
H      51.984000000000002     49.463300000000004     44.357450000000007
H      45.437799999999996     44.816299999999998     51.618050000000004
H      46.082199999999993     45.213200000000001     52.951349999999998
H      44.927399999999999     47.378100000000003     52.441250000000004
H      44.026899999999991     45.875000000000000     52.152350000000006
H      48.450799999999994     45.079000000000008     51.277150000000006
H      48.409900000000000     46.379100000000008     52.084449999999997
H      44.015999999999998     47.869600000000005     50.071550000000009
H      44.098899999999993     46.483000000000004     49.658549999999998
H      48.227399999999996     50.847499999999997     47.548250000000017
H      45.051399999999994     48.616500000000002     48.203449999999997
H      49.419799999999988     46.850899999999996     49.534350000000003
H      49.603099999999991     48.391900000000007     47.974350000000008
