22

C      50.372609999999980     48.859899999999989     49.075099999999992
C      49.224449999999997     49.511800000000001     49.536400000000000
C      50.009333499999990     47.174799999999998     48.314700000000002
C      47.906150000000018     48.767399999999995     49.614800000000002
C      48.645250000000019     47.163799999999995     47.639099999999999
C      47.649749999999990     48.019399999999997     48.268300000000011
C      48.327150000000010     46.127499999999998     46.672499999999999
C      46.430150000000005     48.067200000000000     47.341500000000011
C      47.010149999999989     46.225099999999998     46.224400000000003
C      45.851150000000011     46.902299999999997     46.983900000000006
H      51.293149999999990     48.806500000000000     49.730300000000000
H      51.134689999999992     49.602499999999992     48.342200000000005
H      49.056550000000009     50.513500000000001     49.153700000000001
H      49.309950000000001     49.826800000000006     50.592100000000002
H      49.982671599999989     47.067099999999996     49.349700000000013
H      50.768053999999985     46.517699999999998     47.676299999999998
H      47.724750000000007     48.149699999999996     50.407300000000006
H      47.041449999999983     49.468199999999996     49.620700000000014
H      49.125050000000002     45.486499999999999     46.612500000000011
H      45.419050000000013     48.770099999999999     47.299400000000006
H      46.755250000000011     45.488999999999997     45.407899999999998
H      44.706850000000010     46.750599999999999     46.806000000000012
