22

C      45.548049999999989     47.272749999999988     48.625099999999989
C      45.299050000000001     48.567050000000009     47.865000000000002
C      46.927549999999989     46.532750000000007     48.221299999999992
C      46.317549999999990     49.447649999999996     47.362499999999997
C      48.396050000000002     47.482950000000002     48.256399999999999
C      47.747850000000007     48.656350000000003     47.694099999999999
C      49.696649999999998     47.061049999999994     48.629399999999997
C      48.680350000000011     49.660250000000005     47.276499999999999
C      50.508749999999999     48.231350000000006     48.342899999999993
C      50.015850000000007     49.530250000000009     47.801899999999996
H      45.853749999999998     47.511650000000003     49.524700000000003
H      44.643749999999997     46.703350000000000     49.042300000000004
H      44.649149999999999     49.252250000000004     48.653999999999996
H      44.645150000000001     48.192949999999996     47.021999999999998
H      47.039749999999998     46.584850000000003     47.145899999999997
H      47.128149999999998     45.412649999999999     48.604999999999997
H      46.358849999999997     50.448949999999996     47.975199999999994
H      46.434549999999994     50.056750000000008     46.475299999999997
H      49.848450000000000     46.026349999999994     48.743400000000001
H      48.266750000000009     50.587350000000001     46.953600000000002
H      51.356250000000003     48.071450000000013     48.799399999999999
H      50.822450000000011     50.245350000000002     47.863599999999998
