5

C      47.670199999999994     47.939299999999996     48.009449999999994
H      47.232300000000002     47.351199999999999     47.203850000000003
H      48.767699999999998     48.115200000000002     47.765550000000005
H      48.016699999999993     47.236300000000000     48.796149999999997
H      47.343200000000003     48.763700000000000     48.763449999999992
