9

C      47.407399999999996     48.220583499999989     46.987344999999991
C      48.372900000000001     48.481883500000002     47.983044999999997
C      48.394399999999990     47.471083499999999     49.205255000000001
H      46.659300000000002     47.434283499999999     46.640345000000003
H      47.363599999999991     48.921647500000013     46.213344999999997
H      49.148899999999998     49.321316500000002     48.535843000000007
H      48.250900000000001     46.678683499999998     48.441701000000016
H      49.340699999999998     47.065183499999996     49.475344999999997
H      47.497199999999992     47.441183500000001     49.786655000000003
