22

C      47.994799999999998     45.378249999999994     47.345799999999997
C      49.363800000000005     45.976550000000010     46.838300000000004
C      47.101700000000001     46.196750000000002     48.525800000000004
C      49.734500000000004     47.164250000000003     47.716099999999997
C      47.309400000000004     47.695450000000001     48.750899999999987
C      48.521800000000006     48.077649999999998     48.070499999999996
C      46.573000000000000     48.665950000000002     49.381100000000004
C      48.947900000000011     49.532450000000004     47.976699999999994
C      46.975200000000008     50.072349999999993     49.135800000000003
C      48.093800000000009     50.597950000000004     48.398799999999994
H      47.491700000000002     45.444049999999997     46.439800000000005
H      48.047300000000000     44.356050000000003     47.587399999999988
H      50.226600000000012     45.195850000000000     47.012299999999996
H      49.273800000000001     46.423549999999999     45.816000000000003
H      46.100200000000008     45.982650000000000     47.999899999999997
H      47.077500000000008     45.633150000000001     49.461399999999998
H      50.387200000000000     47.886550000000007     47.064200000000000
H      50.375300000000003     46.786650000000002     48.847800000000007
H      45.612800000000000     48.543250000000000     50.183999999999997
H      50.100200000000008     49.558749999999996     47.573099999999997
H      46.303500000000007     50.828949999999999     49.651600000000002
H      48.660500000000006     51.643949999999997     48.488200000000006
