11

C      49.185749999999999     47.580199999999991     48.821599999999989
C      47.749049999999997     49.234100000000005     48.162399999999998
C      48.164249999999996     47.929899999999996     47.817099999999996
C      48.419150000000002     48.689600000000006     49.272599999999990
C      48.137450000000001     47.352199999999996     46.394799999999996
H      47.077849999999998     47.536799999999999     46.105100000000000
H      46.814250000000001     49.895299999999999     48.067499999999995
H      48.173550000000006     49.175399999999989     50.278500000000001
H      48.780349999999999     46.104700000000001     46.569899999999997
H      48.537250000000000     48.089199999999998     45.721499999999999
H      48.948650000000001     46.703899999999997     49.522600000000004
