22

C      48.941450000000003     49.461699999999993     45.840929999999986
C      49.140050000000002     47.874000000000002     45.987230000000004
C      47.771349999999998     49.857400000000005     47.107129999999991
C      49.383349999999993     46.792499999999997     47.323630000000001
C      47.305250000000001     48.611200000000004     47.956229999999998
C      48.158450000000002     47.399200000000000     48.038629999999991
C      46.356549999999999     48.981199999999994     49.061146000000001
C      47.860450000000000     46.361300000000007     48.972990000000003
C      46.309950000000001     48.207900000000002     50.227170000000008
C      46.855350000000001     46.858499999999999     49.917020000000001
H      48.359850000000009     49.554600000000001     45.011930000000000
H      49.851050000000001     49.878599999999999     45.685029999999990
H      49.650549999999996     47.474899999999998     45.186529999999998
H      48.163150000000002     47.680699999999995     45.419829999999997
H      48.243750000000006     50.466900000000003     47.878430000000002
H      46.837150000000008     50.495200000000004     46.672930000000001
H      50.369549999999990     46.638399999999997     47.762729999999998
H      49.301149999999993     45.813499999999998     47.205229999999993
H      45.998150000000010     50.074999999999996     49.079570999999994
H      48.387650000000008     45.504799999999996     48.812559000000014
H      45.630450000000010     48.361899999999999     50.988070000000000
H      46.822150000000008     46.106500000000004     50.562200000000011
