236

C      37.124349999999993     41.226500000000001     44.768399999999986
C      56.825349999999993     45.352800000000002     56.718999999999994
C      56.877850000000002     46.932099999999991     56.654300000000006
C      56.459850000000010     50.521799999999999     53.848900000000000
C      56.522349999999996     49.527400000000000     52.628000000000000
C      59.735449999999993     48.178199999999990     56.367199999999997
C      59.697750000000006     46.992899999999992     55.687699999999992
C      57.561349999999997     50.681600000000003     54.924400000000006
C      58.553150000000009     48.388100000000009     52.472500000000011
C      59.375849999999993     49.682999999999993     55.989100000000008
C      59.559550000000009     47.632800000000003     53.305199999999985
C      58.856150000000007     49.987499999999997     54.709500000000006
C      59.093249999999991     48.965400000000002     53.742900000000006
C      55.492049999999985     51.596599999999995     53.954599999999999
C      54.338650000000008     51.546899999999994     52.827699999999993
C      54.336850000000005     50.623499999999993     51.658500000000004
C      55.382250000000006     49.379999999999995     51.981800000000007
C      60.115050000000004     47.905599999999993     57.834100000000007
C      60.175950000000007     46.560099999999991     58.433800000000005
C      60.039650000000002     45.273600000000002     57.599400000000003
C      59.898950000000006     45.549099999999996     56.225999999999999
C      55.323250000000009     52.304800000000000     55.254400000000004
C      54.217050000000008     53.362299999999991     55.251900000000006
C      53.160950000000007     53.253399999999999     54.299900000000008
C      53.218650000000004     52.418899999999994     53.103699999999989
C      56.157050000000005     52.300399999999996     56.485600000000005
C      57.360450000000007     51.600000000000009     56.081799999999987
C      58.160350000000001     51.717399999999998     57.388500000000008
C      59.514449999999989     50.727699999999999     57.250100000000003
C      57.064650000000007     48.009900000000002     52.525000000000006
C      56.277949999999983     47.047400000000010     51.678700000000006
C      54.853850000000001     48.022399999999990     51.558699999999988
C      60.167949999999998     46.770299999999992     54.243400000000008
C      60.046450000000000     44.186499999999995     55.464700000000008
C      51.862349999999999     53.648200000000003     54.605900000000005
C      56.852449999999997     47.344299999999990     53.872399999999999
C      56.461550000000010     47.983300000000000     55.421000000000006
C      55.938949999999984     50.360999999999990     51.070000000000007
C      45.993550000000006     46.693799999999996     47.204200000000000
C      36.347749999999998     42.500199999999992     46.892899999999983
C      44.631850000000007     47.326599999999999     47.497899999999987
C      44.455750000000002     45.923800000000000     48.033000000000001
C      35.206950000000006     42.753299999999996     44.871400000000008
C      42.577849999999998     44.312199999999990     45.337100000000007
C      37.236449999999991     41.844099999999997     49.291600000000003
C      42.891149999999996     44.637400000000000     49.258099999999999
C      37.980249999999998     42.639899999999997     44.945300000000003
C      39.633049999999997     42.635800000000003     48.725999999999999
C      40.471549999999993     43.413100000000000     46.081900000000005
C      43.244549999999997     44.973399999999998     47.938000000000002
C      36.409650000000006     42.521000000000001     45.470099999999988
C      40.834750000000007     43.546599999999998     48.758900000000011
C      39.147950000000002     42.677399999999992     45.981399999999994
C      42.383050000000004     44.543000000000006     46.783600000000007
C      37.438350000000000     42.653599999999997     47.963999999999984
C      41.161650000000002     43.774400000000000     47.334100000000007
C      38.824450000000006     42.622299999999996     47.391599999999997
C      42.232549999999996     44.075600000000009     44.029400000000010
C      41.205050000000000     43.628700000000009     44.857499999999987
C      38.116850000000007     41.415499999999994     50.387399999999985
C      39.436449999999994     41.916299999999993     49.967200000000005
C      36.133650000000003     42.097999999999999     48.352300000000000
C      42.425350000000002     43.700800000000001     42.430999999999997
C      40.065050000000006     46.564400000000006     45.110599999999991
C      40.793949999999995     47.764000000000010     44.851900000000001
C      40.556750000000001     51.533999999999992     50.480800000000002
C      40.402249999999995     47.388399999999990     46.330699999999993
C      40.855150000000002     50.083399999999997     47.047800000000009
C      40.382449999999999     52.910200000000003     50.344400000000007
C      40.518450000000009     48.660400000000010     47.244399999999999
C      41.299550000000004     49.402500000000003     48.156100000000009
C      39.533750000000005     46.168099999999995     43.783100000000005
C      39.351549999999989     46.976299999999995     42.487099999999998
C      40.411750000000005     47.969500000000011     42.468199999999996
C      41.061850000000000     48.405099999999990     43.629300000000001
C      40.190349999999995     45.142399999999995     39.750699999999995
C      39.762450000000008     45.538600000000002     42.399699999999996
C      39.965750000000000     44.686900000000009     41.220600000000005
C      39.182949999999998     46.064599999999999     46.218200000000010
C      40.011550000000007     46.712200000000010     39.036600000000007
C      40.273350000000001     50.457099999999997     45.591400000000007
C      41.345450000000007     50.511699999999990     44.545299999999997
C      41.925550000000001     49.676800000000000     43.238700000000009
C      39.603650000000002     52.100800000000007     51.264400000000009
C      38.621350000000000     44.311399999999992     40.775800000000004
C      40.991749999999996     43.532899999999998     41.636300000000006
C      48.339149999999997     48.765900000000002     49.339799999999997
C      49.740650000000009     48.203400000000002     49.092600000000004
C      51.030949999999997     52.784999999999997     50.665700000000001
C      52.210849999999994     52.203400000000002     50.445599999999999
C      48.309649999999998     49.897300000000001     50.225400000000008
C      50.997349999999997     48.777900000000002     49.474499999999992
C      49.549550000000004     52.167900000000003     50.808400000000006
C      52.176850000000009     50.707799999999992     50.422700000000006
C      49.517350000000000     50.639799999999994     50.558599999999998
C      50.774850000000008     49.975600000000000     50.200299999999999
C      47.076050000000002     48.327900000000000     48.835300000000004
C      48.377650000000003     46.474699999999999     48.073299999999989
C      47.906950000000002     45.037199999999999     47.883600000000001
C      49.657550000000008     47.252499999999998     48.021799999999985
C      48.707650000000001     53.097600000000000     51.455200000000005
C      51.095550000000010     54.257000000000005     50.763199999999998
C      52.430749999999996     54.626399999999990     51.111500000000007
C      53.301349999999992     53.475999999999999     50.421900000000008
C      47.024250000000002     46.946399999999997     48.315300000000008
C      60.690150000000010     44.025899999999993     48.142400000000009
C      60.031950000000002     44.750399999999999     47.003200000000007
C      60.251150000000003     44.007199999999997     49.544300000000007
C      58.404150000000008     45.190100000000001     47.522100000000009
C      60.051949999999998     45.596899999999991     49.647300000000001
C      59.184950000000008     46.159300000000002     48.518400000000000
C      60.386749999999999     46.821899999999999     50.383000000000010
C      58.577350000000003     47.311499999999995     49.015600000000006
C      59.424749999999996     47.750900000000001     50.222099999999998
C      59.168650000000007     49.018299999999996     51.290499999999994
C      45.980049999999999     43.928100000000001     37.910899999999998
C      44.395850000000003     43.878500000000003     37.883399999999995
C      46.816750000000006     45.094299999999990     38.550399999999996
C      43.999449999999996     46.542999999999992     37.545299999999997
C      44.390050000000002     45.936500000000009     39.046099999999996
C      43.763149999999996     45.158200000000008     37.942800000000005
C      43.699350000000003     46.231700000000004     40.465999999999994
C      42.012649999999994     44.965999999999994     38.405400000000000
C      42.309349999999995     46.336399999999998     40.355800000000002
C      41.320050000000002     45.947199999999995     39.346699999999998
C      45.983150000000002     45.392600000000002     39.611100000000008
H      35.153750000000002     42.996899999999997     43.761700000000005
H      36.460350000000005     41.238199999999992     43.594000000000008
H      37.485849999999999     40.386799999999994     45.300400000000010
H      56.444650000000003     47.511699999999990     57.568600000000004
H      57.939349999999997     46.828499999999991     56.930300000000003
H      60.173250000000003     48.530000000000001     58.647600000000011
H      60.061549999999990     46.030500000000004     59.319800000000001
H      59.947650000000003     44.294499999999999     58.002800000000008
H      54.603749999999998     53.971599999999995     56.273399999999995
H      52.386949999999999     52.434800000000010     52.406800000000004
H      56.111650000000004     53.057000000000002     57.419300000000007
H      57.667149999999999     50.974299999999999     58.318100000000001
H      58.117550000000001     52.689999999999998     57.719700000000003
H      60.262149999999998     51.506799999999998     56.819400000000002
H      59.960050000000003     50.323099999999997     58.215500000000006
H      56.161450000000009     46.136600000000001     51.989300000000000
H      59.852550000000001     43.571500000000000     56.441000000000003
H      56.735850000000006     46.992400000000004     50.623799999999989
H      53.685549999999999     48.038499999999999     51.659700000000001
H      54.386950000000006     47.152099999999990     50.754999999999995
H      59.374450000000003     44.207700000000003     54.755600000000001
H      60.632350000000010     43.429400000000001     55.041000000000011
H      57.760149999999989     46.997500000000002     54.404499999999985
H      55.886749999999999     46.826599999999999     53.922800000000009
H      55.334650000000003     48.115499999999997     55.237700000000004
H      56.989250000000006     48.932699999999997     55.546399999999991
H      56.562850000000005     50.912800000000004     50.663799999999995
H      46.297750000000001     46.073900000000009     46.503399999999999
H      44.781449999999992     45.804499999999990     49.001799999999989
H      34.266050000000000     42.854599999999991     45.296100000000010
H      43.681450000000005     45.032200000000003     49.895499999999984
H      38.223950000000009     42.871799999999993     44.013600000000011
H      37.774749999999997     40.769399999999990     51.313100000000006
H      40.248550000000002     42.189300000000003     50.948300000000003
H      37.499550000000006     46.834400000000002     41.202100000000002
H      42.906750000000002     42.711100000000002     42.343299999999999
H      42.897750000000002     44.618900000000011     42.101200000000006
H      41.061349999999997     53.529399999999995     49.898700000000005
H      40.668349999999997     48.327399999999997     41.454999999999998
H      39.655149999999999     45.157299999999992     46.363100000000003
H      38.316850000000002     45.672100000000000     45.773099999999985
H      39.949249999999999     46.698799999999991     38.013800000000003
H      40.168250000000008     47.880899999999997     39.207999999999998
H      39.787450000000000     51.542400000000001     45.838599999999985
H      39.328549999999993     49.658500000000004     45.424300000000002
H      42.103349999999999     50.963399999999993     45.073700000000002
H      40.828949999999999     51.356700000000004     43.627499999999998
H      41.518850000000008     50.113799999999998     42.507599999999996
H      43.103049999999996     49.581000000000003     43.315300000000008
H      38.496850000000002     43.202799999999996     40.826000000000008
H      37.777949999999997     44.998800000000003     41.338499999999996
H      41.045250000000003     42.749099999999999     40.890100000000004
H      40.193249999999999     43.067500000000010     42.323999999999998
H      37.218750000000000     47.803899999999999     43.153700000000001
H      47.280050000000010     50.225200000000001     50.468599999999995
H      51.981349999999999     48.594600000000000     49.147900000000007
H      46.158750000000005     48.673400000000001     48.922800000000009
H      50.433449999999993     46.892499999999998     47.413099999999986
H      50.303249999999998     54.924700000000001     50.657600000000002
H      52.799550000000004     55.613200000000006     51.420900000000003
H      46.723149999999990     46.351699999999994     49.166499999999999
H      41.300550000000008     43.997999999999990     50.810099999999991
H      61.733950000000000     44.135599999999997     48.166100000000000
H      60.638150000000003     42.938400000000001     47.621600000000001
H      59.743450000000003     44.085999999999999     46.167599999999993
H      60.647049999999986     45.635099999999994     46.615699999999990
H      59.412650000000006     43.624200000000002     49.851999999999990
H      61.289249999999988     43.942599999999999     50.037900000000008
H      57.732549999999996     45.581299999999999     46.742400000000004
H      57.981349999999999     44.113900000000001     48.200699999999998
H      61.164549999999998     46.817700000000002     51.195000000000007
H      57.590449999999983     47.778799999999990     48.587299999999999
H      60.091550000000005     49.705100000000002     51.180599999999998
H      58.294649999999997     49.686700000000002     50.782899999999984
H      46.257049999999992     43.469200000000001     36.871700000000004
H      46.408250000000002     42.972899999999996     38.845900000000000
H      43.931850000000004     43.427399999999992     38.949200000000005
H      43.865249999999996     43.255600000000001     37.057800000000000
H      46.933450000000001     45.760300000000001     37.593000000000004
H      47.946950000000008     44.827599999999990     38.804699999999997
H      43.030549999999998     46.949700000000007     37.163700000000006
H      44.633450000000003     46.921799999999990     36.680199999999999
H      44.334750000000000     46.633299999999991     41.194400000000002
H      41.803850000000004     44.047300000000007     38.604299999999995
H      41.529050000000005     46.253700000000009     41.152400000000000
H      41.563049999999990     45.077599999999990     37.457300000000004
H      45.913450000000005     44.607100000000003     40.376599999999996
H      46.454849999999993     46.472499999999997     39.904799999999994
H      39.353049999999996     51.302899999999994     53.177700000000002
H      60.400150000000004     45.822400000000002     53.987000000000009
N      41.565150000000010     44.014099999999999     49.696599999999989
N      37.886449999999996     47.524500000000003     42.057699999999997
O      56.362150000000007     44.400899999999993     56.973099999999988
O      50.885150000000003     54.140799999999999     54.976900000000001
O      44.270050000000005     48.435699999999997     47.994200000000006
O      39.353950000000005     52.250799999999998     52.792899999999989
O      48.562649999999998     54.041899999999998     52.261700000000005
O      47.835650000000001     43.997599999999991     47.579400000000007
O      54.281849999999999     53.738000000000000     49.783500000000004
O      53.114750000000008     50.032499999999999     50.829100000000011
S      42.612549999999999     48.340000000000003     52.589899999999986
S      39.709949999999992     46.626599999999996     55.370900000000006
S      40.775650000000006     49.030999999999992     54.706000000000003
S      42.768549999999998     45.532000000000011     52.433800000000005
S      41.842050000000000     49.754500000000007     50.219900000000010
S      42.315749999999994     46.805199999999999     54.834699999999984
S      40.428350000000002     46.973699999999994     52.862499999999997
S      40.047550000000008     48.989300000000000     52.077399999999983
S      40.860849999999999     44.692300000000003     54.025199999999998
S      41.337949999999999     47.010599999999997     50.518000000000001
