108

C      46.138449999999992     48.091499999999989     43.159449999999985
C      46.738650000000000     47.004799999999996     43.898150000000001
C      48.617249999999991     50.784300000000002     45.940149999999988
C      46.245049999999999     49.599699999999999     43.140050000000002
C      47.905449999999995     47.261599999999994     44.872050000000002
C      47.977749999999993     50.060400000000001     44.971849999999989
C      48.789850000000001     48.645799999999994     46.758150000000001
C      44.887049999999995     50.760599999999997     42.718549999999993
C      48.376449999999998     48.600099999999998     45.305250000000001
C      45.219549999999998     47.412799999999997     42.199449999999999
C      44.346750000000000     46.070099999999996     42.216149999999999
C      45.221049999999998     45.072099999999999     42.918849999999992
C      46.254950000000001     45.631799999999998     43.762050000000002
C      44.624050000000004     48.421899999999994     41.295549999999992
C      42.615150000000000     47.001999999999995     40.842449999999999
C      43.461549999999995     48.273199999999996     40.572849999999988
C      43.153050000000000     45.807499999999997     41.530450000000002
C      45.237749999999998     49.603399999999993     40.750749999999996
C      45.893850000000000     50.191999999999993     41.865749999999991
C      47.005949999999999     51.356799999999993     41.368349999999992
C      46.959349999999993     50.474599999999995     43.926649999999995
C      45.975950000000005     40.923999999999999     43.193749999999994
C      48.996249999999996     49.994599999999991     47.052849999999992
C      43.973849999999999     51.598399999999998     43.176850000000002
C      49.181750000000001     51.002499999999998     48.379750000000001
C      48.317650000000008     53.224499999999992     51.479649999999992
C      49.403550000000003     53.317799999999991     50.548249999999996
C      46.196849999999998     55.612399999999994     47.726849999999999
C      46.929150000000000     53.519999999999996     50.974350000000001
C      49.164349999999992     53.917000000000002     49.213650000000001
C      45.615349999999999     55.091999999999999     49.041950000000000
C      47.692649999999993     55.565500000000000     47.654249999999990
C      46.761850000000003     54.312100000000001     49.716949999999997
C      47.924749999999996     54.750799999999998     49.009249999999994
C      48.528449999999999     52.449600000000004     52.695949999999996
C      49.789350000000006     52.191699999999997     53.241949999999989
C      51.046650000000007     52.391700000000000     52.426549999999992
C      50.808349999999997     52.844200000000001     51.057449999999989
C      47.272250000000007     52.452699999999993     53.554649999999995
C      47.381350000000005     51.628299999999996     54.765349999999998
C      48.603649999999995     51.324399999999997     55.230750000000000
C      49.898949999999992     51.443500000000000     54.459049999999991
C      45.888550000000002     52.659999999999997     53.125450000000001
C      45.812449999999998     53.059799999999996     51.808549999999997
C      52.529050000000005     52.069199999999995     52.549650000000000
C      53.554350000000007     51.812399999999997     51.620849999999990
C      53.106550000000006     52.232900000000001     50.250450000000001
C      51.713649999999994     52.679099999999991     49.918349999999990
C      50.473949999999995     54.160799999999995     48.293650000000000
C      51.256250000000001     52.738599999999991     48.522149999999996
C      45.830549999999995     54.870800000000003     46.381949999999989
C      50.438749999999999     51.789500000000004     47.640850000000000
C      48.635950000000001     56.064599999999999     46.800449999999998
C      45.594349999999999     56.482599999999991     48.786249999999995
C      43.586949999999995     39.879700000000000     46.819249999999997
C      44.778950000000002     43.708299999999994     42.700849999999988
C      45.405250000000002     42.557399999999994     43.190049999999999
C      45.877949999999998     41.669799999999995     44.251750000000001
C      44.840550000000000     41.544599999999996     45.552449999999993
C      46.432150000000000     42.578299999999999     45.222349999999992
C      44.614150000000002     40.382099999999994     46.197350000000000
C      45.121749999999999     39.159399999999998     45.908450000000002
H      48.200949999999999     46.578599999999994     45.815849999999998
H      48.819150000000000     47.896699999999996     47.492849999999990
H      46.937950000000001     44.934599999999996     44.448749999999990
H      43.262549999999997     48.937999999999988     39.853249999999989
H      42.633350000000000     44.953399999999995     41.899249999999995
H      44.819350000000000     49.830500000000001     39.846350000000001
H      47.967149999999997     50.942099999999996     41.718549999999993
H      46.840250000000005     52.345299999999995     41.619349999999997
H      46.886249999999997     51.700199999999995     43.913449999999997
H      47.100950000000005     51.153199999999998     40.296049999999994
H      48.538249999999998     51.871200000000002     45.934550000000002
H      43.354050000000001     52.218699999999998     42.440349999999995
H      43.473250000000000     51.404299999999992     44.268949999999990
H      48.231249999999996     51.003799999999998     48.877049999999997
H      49.583649999999999     50.463799999999992     49.098950000000002
H      46.087550000000000     54.023699999999991     45.835749999999990
H      46.377850000000002     51.464799999999997     55.410749999999993
H      48.899750000000004     50.979500000000002     56.153649999999999
H      44.983650000000004     52.393999999999991     53.814449999999994
H      44.857350000000004     53.250100000000003     51.393050000000002
H      52.659249999999993     51.780400000000000     53.557850000000002
H      54.538450000000005     51.254800000000003     52.018949999999990
H      53.640650000000001     52.076399999999992     49.276150000000001
H      50.955149999999996     55.125299999999996     48.729349999999997
H      50.474750000000000     54.597700000000003     47.254849999999990
H      52.181850000000004     52.867499999999993     47.958649999999992
H      44.505749999999999     54.953999999999994     46.384249999999994
H      46.441949999999999     55.803500000000000     45.852949999999993
H      51.046950000000002     51.121299999999991     47.301049999999989
H      49.973050000000008     52.349400000000003     46.906649999999999
H      48.369549999999997     56.577900000000000     45.958349999999996
H      49.688449999999996     55.686300000000003     46.961549999999988
H      44.569049999999997     56.820799999999991     48.413150000000002
H      46.009250000000002     57.196600000000004     49.397049999999993
H      50.129049999999999     49.796499999999995     55.414149999999992
H      42.871249999999996     39.003599999999999     46.554049999999989
H      42.980849999999997     40.432099999999998     47.615449999999996
H      46.355150000000002     43.585099999999997     44.859150000000000
H      44.297249999999998     43.350099999999998     41.706049999999991
H      44.015650000000001     42.191599999999994     45.765850000000000
H      47.525550000000003     42.651499999999999     45.639749999999992
H      46.291249999999998     39.248100000000001     46.338650000000001
H      44.909349999999996     38.803399999999996     44.738749999999996
O      47.041450000000005     40.338899999999995     43.101050000000001
O      41.461549999999995     46.890699999999995     40.600149999999999
O      50.704850000000000     50.359600000000000     54.827349999999996
