5

C      47.846474999999991     48.345299999999995     47.818649999999991
H      46.998564999999999     48.672900000000006     47.127949999999998
H      49.001435000000001     48.463100000000004     47.481849999999994
H      47.345725000000002     47.324300000000001     47.510850000000005
H      47.466224999999994     48.675699999999999     48.872050000000002
