21

C      48.420399999999994     46.081959999999995     46.183969999999995
C      47.464999999999996     45.719859999999997     47.275369999999995
C      47.849600000000002     47.837260000000001     46.014870000000002
C      47.951499999999996     46.366559999999993     48.446470000000005
C      48.219899999999996     48.602059999999994     47.224670000000003
C      48.322699999999998     47.752560000000003     48.520070000000004
C      48.609299999999990     49.980260000000001     47.550269999999998
C      48.722099999999998     48.275959999999998     49.826490000000007
C      48.991099999999996     50.612359999999995     48.890821000000010
C      48.968800000000002     49.693159999999992     49.980280000000008
H      49.343899999999991     45.804659999999998     46.594170000000005
H      48.699399999999997     45.385379999999998     45.310169999999999
H      47.766399999999997     44.635440000000003     47.457570000000004
H      46.285699999999999     45.930560000000000     47.358869999999996
H      48.029299999999999     48.391159999999999     44.935469999999995
H      46.811299999999996     47.132159999999999     45.841870000000000
H      47.930199999999999     45.860860000000002     49.343897000000013
H      48.599399999999996     50.758059999999986     46.782169999999994
H      48.473100000000002     47.840059999999994     50.807789999999997
H      49.714300000000001     51.364559999999997     48.824794900000008
H      49.351500000000001     50.207459999999998     51.064530000000005
