6

C      48.072799999999994     48.225999999999985     48.616849999999992
C      47.947600000000008     47.488799999999998     47.477649999999997
H      49.031700000000001     49.019500000000008     48.548749999999998
H      47.269100000000009     48.158199999999994     49.376750000000001
H      46.968299999999999     46.980499999999992     47.262550000000005
H      48.768500000000003     47.770099999999999     46.623249999999999
