7

C      46.730349999999994     48.806049999999985     49.396154999999993
H      49.856150000000000     47.155249999999995     46.072154999999995
O      46.143850000000000     49.401750000000007     50.110254999999995
S      46.742650000000005     46.853849999999994     47.656115000000000
S      49.154949999999999     46.598249999999993     47.933774999999997
S      48.442650000000000     48.898949999999999     48.303655000000006
S      48.020450000000004     48.024450000000002     45.889745000000005
