8

C      48.022609999999986     48.961699999999993     47.630799999999994
C      47.855149999999995     47.264200000000002     48.123499999999993
H      48.753230000000002     49.318999999999996     46.877700000000004
H      48.849800000000002     49.265099999999997     48.265699999999995
H      47.150199999999998     46.422300000000000     47.597200000000001
H      47.200749999999999     46.970599999999997     49.122299999999996
H      47.162260000000003     49.577700000000000     47.722199999999987
H      48.756159999999994     46.611600000000003     48.223199999999991
