22

C      49.097189499999992     47.983139999999992     49.387999999999991
C      49.905889500000001     49.449170000000002     49.227000000000004
C      48.679689499999995     49.479169999999989     46.848799999999997
C      49.027489500000001     50.333369999999995     48.233199999999997
C      48.041889499999996     47.549819999999997     48.599199999999996
C      47.841389500000005     48.206919999999997     47.225499999999997
C      47.232589500000003     46.433429999999994     48.981700000000004
C      46.730789500000000     47.722859999999997     46.345900000000000
C      46.032589500000000     46.042690000000000     48.254000000000005
C      45.842489499999999     46.988659999999996     47.147500000000008
H      49.815789499999994     47.249339999999997     48.899000000000001
H      48.963989499999997     47.852169999999994     50.397999999999996
H      50.204089499999995     50.100569999999998     50.218299999999999
H      50.972910499999998     49.370169999999995     48.916300000000007
H      49.575389500000000     49.093769999999999     46.341900000000010
H      47.950789499999999     49.931769999999993     46.055100000000010
H      48.207589499999997     50.660669999999989     48.811300000000003
H      49.708389499999996     51.057870000000001     47.948500000000010
H      47.427889500000006     46.141140000000000     50.031999999999996
H      46.533189500000006     48.318880000000000     45.602000000000004
H      45.428189500000002     44.942129999999999     48.544700000000006
H      45.027089500000002     46.604469999999999     46.540500000000009
