99

C      51.063099999999991     51.223349999999996     47.914850000000001
C      50.385699999999993     50.027649999999994     47.353149999999999
C      47.655099999999997     53.459850000000003     45.234250000000003
C      50.632699999999993     52.621250000000003     47.548349999999999
C      49.429899999999996     50.047150000000002     46.439350000000005
C      48.800799999999995     53.800949999999986     46.138850000000005
C      47.954599999999992     51.891949999999994     45.272450000000006
C      49.479599999999998     52.711650000000006     46.491749999999996
C      49.047199999999997     51.503349999999998     46.182249999999996
C      52.189499999999988     51.015850000000000     48.856750000000005
C      52.657800000000002     49.775250000000000     49.437250000000006
C      52.219199999999994     48.611249999999998     48.379849999999990
C      51.004999999999995     48.788950000000000     47.652950000000004
C      52.602499999999999     52.153449999999992     49.751850000000005
C      53.338999999999992     51.709049999999991     50.882649999999998
C      53.149700000000003     50.257149999999996     50.719350000000006
C      51.421199999999992     53.850350000000006     48.048449999999988
C      51.783599999999986     53.571749999999994     49.566350000000000
C      52.675299999999993     47.302949999999996     48.733149999999995
C      46.494999999999997     53.887149999999991     44.383350000000007
C      52.779699999999998     54.277050000000003     47.351250000000007
C      49.094599999999993     48.607450000000000     45.763950000000008
C      44.044499999999992     46.608050000000006     46.967749999999995
C      49.360299999999995     44.696849999999998     50.545149999999992
C      44.096499999999992     45.197749999999999     46.994450000000001
C      48.524999999999999     43.578450000000004     49.971350000000001
C      45.090199999999996     47.448549999999997     47.348349999999996
C      49.462699999999998     46.002849999999995     49.810950000000005
C      45.288799999999995     43.083249999999992     47.964349999999996
C      46.363699999999994     42.648949999999999     48.920649999999995
C      47.764399999999995     47.615750000000006     48.173149999999993
C      45.218499999999999     44.510850000000005     47.542649999999995
C      47.391499999999994     43.844949999999997     49.186750000000004
C      46.309699999999992     47.051550000000006     47.858850000000004
C      48.322099999999992     46.545649999999995     49.120350000000002
C      46.294799999999995     45.494349999999997     48.014550000000000
C      47.409799999999997     45.327250000000006     48.893549999999991
C      42.921999999999997     44.255250000000004     46.808949999999996
C      43.249199999999995     42.881749999999997     46.386750000000006
C      44.271299999999997     42.062749999999994     47.365750000000006
C      48.414199999999994     42.110550000000003     50.584350000000001
C      47.076399999999992     42.318849999999998     51.481750000000005
C      46.148899999999998     42.172150000000002     50.387149999999991
C      42.517199999999995     47.122150000000005     46.761550000000000
C      42.741299999999995     48.489549999999994     46.003150000000005
C      43.689399999999992     49.462750000000000     46.569249999999997
C      44.789999999999992     48.969549999999998     47.542150000000007
C      43.283699999999996     42.262749999999997     45.111649999999997
C      47.847599999999993     48.848450000000000     49.026949999999999
C      48.694799999999994     49.217650000000006     50.452950000000001
C      48.604399999999998     47.462549999999993     46.891450000000006
H      45.539999999999992     53.890949999999989     45.003050000000002
H      49.127999999999993     54.836149999999989     46.388249999999999
H      46.977199999999996     51.335650000000001     45.237449999999995
H      50.610199999999992     47.811650000000000     47.403850000000006
H      53.524099999999990     49.377949999999998     51.242850000000004
H      50.665299999999995     54.763649999999998     47.839849999999998
H      51.872599999999991     54.396849999999986     50.138750000000002
H      50.923999999999992     53.121949999999998     50.113549999999989
H      46.464499999999994     55.029849999999996     44.395550000000000
H      46.266399999999997     53.123049999999992     43.511449999999996
H      53.438499999999998     53.357550000000003     47.153949999999995
H      52.724800000000009     54.690749999999994     46.296149999999997
H      53.581400000000009     54.493549999999999     48.026949999999999
H      50.018799999999999     48.350250000000003     45.163750000000007
H      48.230199999999996     49.022450000000006     45.142250000000004
H      50.386799999999994     46.684150000000002     50.152850000000001
H      42.311399999999992     44.584850000000003     45.880350000000007
H      42.313299999999998     44.033549999999991     47.719850000000008
H      44.913099999999993     41.456149999999994     46.738150000000005
H      44.441799999999994     41.090549999999993     48.152749999999997
H      46.666299999999993     41.449849999999998     48.821050000000000
H      48.077599999999997     40.970150000000004     50.099649999999997
H      49.546299999999995     41.902249999999995     51.228349999999992
H      47.288799999999995     43.160349999999994     52.240849999999995
H      46.763299999999994     41.269949999999994     52.082349999999991
H      46.012599999999992     41.091349999999991     50.470950000000002
H      45.180699999999995     42.759649999999993     50.851650000000006
H      41.947799999999994     46.409250000000000     46.002150000000000
H      41.861499999999992     47.379149999999996     47.609250000000003
H      41.645599999999995     48.937550000000002     45.886650000000003
H      42.853399999999993     48.274450000000002     44.879750000000001
H      43.938999999999993     50.199250000000006     45.783850000000001
H      42.948799999999999     50.186250000000001     47.128749999999997
H      44.490699999999997     48.553349999999995     48.540549999999996
H      45.673599999999993     49.617649999999998     47.570549999999997
H      48.201299999999996     49.619550000000004     48.220050000000001
H      47.057999999999993     49.371650000000002     49.290649999999999
H      49.685999999999993     49.440849999999998     50.079750000000004
H      48.683899999999994     48.372850000000000     50.973050000000001
H      48.126499999999993     49.946550000000002     51.022649999999999
H      48.352499999999992     46.891549999999995     46.033550000000005
H      49.375099999999996     46.748149999999995     47.252750000000006
H      51.542499999999997     45.515749999999997     51.615350000000007
H      54.354400000000005     51.908550000000005     52.488550000000004
O      52.862599999999993     46.227949999999993     49.112849999999995
O      54.122299999999989     52.630949999999999     51.859949999999998
O      43.162799999999997     41.466049999999996     44.309550000000002
S      50.602999999999994     44.366349999999997     51.980249999999998
