22

C      50.016599999999997     45.874649999999988     48.181899999999999
C      49.703200000000002     46.254649999999998     46.645200000000010
C      48.796100000000003     46.352549999999994     49.270100000000006
C      49.528600000000004     47.889150000000001     46.691800000000008
C      48.051400000000008     47.588749999999990     48.629100000000001
C      48.303000000000004     48.419349999999994     47.672500000000007
C      46.880500000000005     48.029849999999996     49.449199999999998
C      47.817300000000010     49.833950000000002     47.672200000000011
C      46.079100000000004     49.150349999999989     49.123800000000010
C      46.547600000000010     50.184949999999986     48.185099999999998
H      50.308399999999999     44.758550000000000     48.345500000000008
H      50.784100000000002     46.608049999999992     48.435400000000008
H      50.596200000000003     46.066049999999990     46.044900000000005
H      48.920999999999999     45.684049999999999     45.884100000000011
H      49.371400000000001     46.613849999999999     50.180700000000009
H      48.287900000000000     45.354649999999992     49.259400000000007
H      50.509200000000000     48.398749999999993     47.000400000000006
H      49.228600000000007     48.040949999999995     45.667600000000000
H      46.482800000000005     47.431849999999997     50.332400000000000
H      48.429000000000009     50.215049999999991     46.931800000000003
H      45.215899999999998     49.651649999999989     49.609800000000000
H      46.214400000000005     51.241450000000000     48.087300000000006
