22

C      48.803099999999993     45.825350000000000     49.190399999999997
C      48.930599999999998     47.138649999999998     50.123800000000003
C      47.602900000000005     46.193349999999995     48.058700000000002
C      48.130000000000003     48.468349999999987     49.560499999999990
C      47.795900000000003     47.504950000000008     47.344899999999996
C      47.895400000000002     48.710450000000009     48.220200000000006
C      46.711000000000006     48.908050000000003     45.635099999999994
C      47.460500000000003     50.039149999999992     47.855199999999996
C      47.353100000000005     47.704249999999988     45.876300000000001
C      46.917900000000003     50.131749999999997     46.546499999999995
H      48.729900000000001     44.865049999999997     49.751700000000000
H      49.233200000000011     45.243449999999996     48.443799999999996
H      49.007900000000006     46.937549999999987     51.159099999999995
H      49.949500000000000     47.428550000000001     50.200999999999993
H      47.290600000000005     45.355350000000001     47.241500000000002
H      46.878300000000003     46.317750000000004     48.965000000000003
H      47.121800000000000     48.317049999999995     50.124399999999994
H      48.701000000000001     49.344249999999988     50.108999999999995
H      46.050500000000000     48.817849999999993     44.840900000000005
H      47.533200000000001     50.896750000000011     48.495300000000000
H      47.508700000000005     46.741149999999990     45.183899999999994
H      46.964300000000001     51.134950000000003     45.944800000000001
