23

C      47.066899999999990     46.101999999999990     48.906099999999995
C      46.970399999999991     47.171999999999990     49.890299999999996
C      46.717999999999996     46.634800000000006     47.474699999999999
C      48.188699999999997     48.360199999999999     49.808100000000010
C      47.806899999999992     47.762699999999988     47.211500000000001
C      48.329899999999995     48.521200000000000     48.317999999999998
C      47.300999999999995     48.646499999999996     46.199900000000000
C      47.962199999999989     49.927099999999996     47.996200000000002
C      49.388999999999989     47.618500000000004     47.444299999999998
C      47.333099999999995     49.996599999999994     46.683599999999998
H      50.236499999999999     48.530899999999995     47.007000000000005
H      46.394099999999995     45.194099999999999     49.118900000000011
H      48.175499999999992     45.669099999999993     48.905299999999997
H      46.101299999999995     47.507500000000000     50.255500000000012
H      47.166499999999992     46.691300000000005     50.759100000000004
H      46.792200000000001     45.834899999999998     46.670200000000008
H      45.763500000000001     47.183200000000006     47.604300000000009
H      49.107899999999994     48.233399999999996     50.247500000000002
H      47.591199999999994     49.413399999999996     50.116600000000005
H      47.109699999999997     48.274499999999996     45.240899999999996
H      47.576199999999993     50.723199999999999     48.573900000000009
H      49.893699999999988     47.165599999999991     48.326400000000007
H      46.799699999999994     50.805900000000001     46.325100000000006
