22

C      45.427299999999995     48.804599999999994     47.774649999999987
C      46.186099999999996     47.234700000000004     47.185149999999993
C      46.886000000000010     49.363499999999988     48.188649999999996
C      47.590299999999999     47.053600000000003     47.331549999999993
C      48.080300000000008     48.410600000000002     47.855050000000006
C      49.424700000000001     48.909800000000004     47.288849999999996
C      48.254400000000004     46.548900000000003     48.593950000000007
C      50.647500000000008     48.136399999999995     47.438050000000004
C      49.643900000000002     46.193600000000004     48.789050000000003
C      50.612499999999997     46.938699999999997     48.223650000000006
H      45.141300000000001     49.197099999999992     46.814149999999998
H      44.403700000000001     49.054299999999998     48.430850000000007
H      45.532499999999999     46.224599999999995     47.414550000000006
H      45.968299999999999     47.524699999999996     46.229050000000001
H      46.628100000000003     49.102000000000004     49.223950000000002
H      46.873199999999997     50.544200000000004     47.911850000000001
H      48.135199999999998     46.599999999999994     46.407550000000001
H      49.792299999999997     49.856699999999989     47.133049999999997
H      47.510100000000008     46.022999999999996     48.789150000000006
H      51.567800000000005     48.575299999999999     46.860849999999999
H      49.844300000000004     45.455799999999996     49.770949999999999
H      51.596299999999999     46.756500000000003     48.498249999999999
