20

C      46.273099999999992     50.330749999999988     49.393749999999983
C      49.495000000000005     48.541149999999995     45.744849999999992
C      47.545100000000005     49.757950000000001     49.205750000000002
C      49.371499999999997     48.886150000000001     47.095250000000000
C      48.182699999999997     48.296349999999997     49.285249999999998
C      49.198400000000007     48.091549999999998     48.329450000000001
C      47.997399999999999     47.148449999999997     50.155849999999994
C      49.951400000000007     46.823549999999997     48.207450000000001
C      48.733900000000006     45.848050000000001     49.953249999999990
C      49.831199999999995     45.699849999999998     49.055050000000001
H      45.223100000000002     49.844449999999995     49.522050000000000
H      46.265299999999996     51.396550000000005     49.024049999999995
H      49.528900000000007     47.516349999999996     45.257150000000003
H      49.269199999999998     49.364249999999998     44.987450000000003
H      48.459199999999996     50.227449999999997     49.659550000000003
H      49.204300000000003     50.071749999999994     46.954549999999990
H      47.307600000000001     47.367649999999998     51.012549999999997
H      50.776899999999998     46.864550000000001     47.560250000000003
H      48.370699999999999     44.831550000000000     50.499850000000002
H      50.180499999999995     44.603449999999995     49.148249999999997
