22

C      50.132776999999983     48.466599999999993     48.828499999999991
C      49.010776999999990     49.678700000000006     49.191299999999998
C      49.501976999999997     46.999499999999998     48.824799999999996
C      48.018976999999992     49.712499999999991     48.055700000000002
C      48.028976999999998     47.265000000000001     48.224400000000003
C      47.261776999999995     48.552999999999997     47.831199999999995
C      47.331676999999999     46.065899999999999     47.989300000000000
C      46.249176999999989     48.665999999999997     46.795199999999994
C      46.092476999999988     45.979999999999997     47.219499999999996
C      45.689076999999997     47.174299999999995     46.653899999999993
H      50.579760000000007     48.958399999999997     47.761099999999999
H      51.072723000000011     48.738999999999990     49.376999999999995
H      49.596876999999992     50.856999999999999     49.256399999999985
H      48.680076999999997     49.500000000000000     50.019800000000004
H      49.508976999999987     46.392599999999995     49.935299999999998
H      50.276597000000002     46.645299999999999     48.263700000000000
H      47.163976999999988     50.777299999999997     48.107299999999995
H      48.174076999999997     50.197199999999995     47.029600000000002
H      47.787376999999992     45.143000000000001     48.316699999999997
H      46.194176999999996     49.522000000000006     46.203899999999990
H      45.285976999999988     45.220700000000001     46.974499999999992
H      44.927276999999989     47.430499999999995     45.980199999999996
