22

C      48.033199999999994     50.103409999999990     49.541499999999992
C      47.589900000000000     48.805409999999995     50.393500000000003
C      48.057099999999998     49.750309999999999     48.065100000000001
C      48.285699999999999     47.427210000000002     50.088899999999995
C      48.273000000000003     48.239210000000000     47.796399999999991
C      48.192799999999998     47.071010000000001     48.709499999999991
C      48.480599999999995     48.060710000000000     46.344700000000003
C      47.637699999999995     45.854410000000001     48.072099999999992
C      48.263700000000000     46.720709999999997     45.802199999999999
C      47.744099999999996     45.801909999999999     46.674099999999996
H      49.233100000000000     50.198809999999995     50.166299999999993
H      47.702100000000002     51.213909999999998     49.624600000000001
H      46.697299999999998     48.546809999999994     49.863900000000001
H      47.205100000000002     49.541510000000002     51.358699999999999
H      48.710299999999997     50.426310000000001     47.281099999999995
H      47.174399999999999     49.952809999999999     47.542900000000003
H      47.994799999999998     46.744810000000001     50.866500000000002
H      49.302700000000002     47.315809999999999     50.395299999999992
H      48.457299999999996     49.018009999999997     45.763999999999996
H      47.142600000000002     44.973059999999997     48.738199999999992
H      48.424999999999990     46.551310000000001     44.641300000000001
H      47.512900000000002     44.786090000000002     46.198799999999991
