22

C      48.545499999999990     46.165999999999990     49.991849999999992
C      47.124799999999993     45.825999999999993     49.399949999999997
C      49.099599999999995     47.688000000000002     49.580249999999999
C      46.881799999999998     46.414199999999994     48.115150000000000
C      48.398099999999999     48.275599999999997     48.232149999999997
C      47.105599999999995     47.886399999999995     47.900149999999996
C      49.135199999999983     49.481099999999998     47.851549999999996
C      46.624399999999994     48.792100000000005     46.889649999999996
C      48.777499999999989     50.356700000000004     46.660249999999998
C      47.415700000000001     49.759299999999996     46.217950000000002
H      49.436299999999989     45.878500000000003     49.258749999999999
H      48.946100000000001     45.781700000000001     50.961150000000004
H      46.535299999999992     46.199600000000004     50.243549999999999
H      46.947699999999998     44.736400000000003     49.371150000000000
H      50.203400000000002     47.807299999999998     49.597450000000002
H      48.610599999999991     48.270099999999999     50.403950000000009
H      45.908000000000001     46.269499999999994     47.753349999999998
H      47.572599999999994     45.942800000000005     47.397950000000002
H      50.077899999999985     49.652500000000003     48.513149999999996
H      45.796599999999998     48.472800000000007     46.361950000000000
H      49.563599999999994     51.263599999999997     46.809550000000002
H      47.165499999999994     50.123199999999997     45.038849999999996
