22

C      50.421899999999994     47.234449999999995     48.014799999999994
C      50.337899999999998     48.740050000000004     48.366999999999990
C      49.072200000000002     46.657850000000003     47.959099999999992
C      49.459899999999998     49.404949999999992     47.554099999999991
C      47.902400000000000     47.433249999999994     48.353699999999989
C      48.022600000000004     48.845350000000003     47.993600000000001
C      46.719299999999997     46.724749999999993     48.730399999999989
C      46.719099999999997     49.470549999999996     47.867099999999994
C      45.434300000000000     47.395649999999996     48.906899999999993
C      45.483499999999999     48.682849999999995     48.209199999999996
H      50.773500000000006     47.193549999999995     46.874799999999993
H      50.927399999999999     46.529750000000000     48.633799999999994
H      51.545999999999999     49.324450000000006     48.132700000000000
H      50.177500000000002     49.065949999999994     49.503799999999998
H      48.848599999999998     46.662550000000003     46.779100000000000
H      48.927799999999998     45.502450000000003     47.735599999999991
H      49.672400000000003     49.343650000000004     46.496200000000002
H      49.676600000000001     50.497549999999997     47.552899999999994
H      46.996000000000002     45.688049999999997     48.990600000000001
H      46.629899999999999     50.478649999999995     47.291299999999993
H      44.454000000000001     46.882050000000000     49.076299999999989
H      44.557899999999997     49.426949999999998     48.120799999999988
