22

C      45.834499999999991     49.595449999999985     48.350349999999985
C      46.995800000000010     50.615449999999996     47.733449999999991
C      46.222900000000003     48.112750000000005     47.840049999999991
C      48.442500000000003     49.994050000000001     47.465449999999990
C      47.630100000000006     47.575149999999994     47.348450000000000
C      48.817100000000003     48.522549999999995     47.081049999999991
C      47.994000000000007     46.154749999999993     47.625850000000000
C      50.116500000000009     48.132649999999998     47.022849999999991
C      49.317399999999999     45.786149999999992     47.462850000000003
C      50.341799999999999     46.743650000000002     47.232550000000003
H      44.805900000000001     50.134249999999994     48.168849999999992
H      45.719900000000003     49.270150000000001     49.314949999999996
H      47.393999999999998     51.290850000000006     48.470450000000000
H      46.597799999999999     51.040350000000004     46.755650000000003
H      45.678800000000003     47.855549999999994     47.080749999999995
H      45.858499999999999     47.257149999999996     48.648550000000000
H      49.069099999999999     50.502449999999996     46.685050000000004
H      49.119199999999999     49.782950000000000     48.549650000000000
H      47.202100000000009     45.431550000000001     47.825749999999999
H      51.025700000000008     48.852050000000006     47.037350000000004
H      49.969699999999996     44.709149999999994     47.510449999999992
H      51.194099999999999     46.173649999999995     46.693150000000003
