9

C      48.884850000000000     47.757274999999993     48.166799999999995
C      49.029149999999994     47.330715000000005     46.837299999999999
C      47.879250000000006     48.795105000000000     48.813499999999991
H      48.821249999999999     47.021265000000000     49.074899999999985
H      48.900150000000004     47.933095000000002     45.897199999999998
H      48.875250000000001     46.281224999999999     46.577599999999990
H      46.970850000000006     48.304015000000000     48.962999999999994
H      47.796250000000008     49.718775000000001     48.211899999999986
H      48.306850000000004     49.187634999999993     50.102800000000002
