9

C      49.125599999999991     48.877450000000003     45.948294999999995
C      49.057499999999997     48.354650000000007     48.267595000000000
C      47.555199999999992     47.548250000000010     50.224865000000008
H      46.609000000000002     46.907550000000001     49.863654999999994
H      47.658899999999996     46.800049999999999     51.134105000000005
H      46.832699999999996     48.351350000000011     50.561725000000003
O      48.901000000000003     48.624250000000004     44.865894999999995
O      49.390999999999998     49.199950000000001     47.429694999999995
O      48.759800000000006     47.814850000000007     49.332804000000010
