81

C      47.688449999999989     46.711349999999996     50.117749999999994
C      48.517549999999993     45.497749999999996     50.165750000000003
C      51.108049999999999     49.208950000000002     52.532150000000001
C      48.109649999999995     48.058149999999998     50.633650000000003
C      49.973949999999995     45.645949999999999     50.664550000000006
C      50.069649999999989     49.457749999999990     51.534149999999997
C      51.886649999999996     47.297749999999994     50.974950000000000
C      49.568849999999991     48.180749999999989     50.840750000000000
C      50.488349999999990     46.946449999999999     50.855950000000007
C      46.359149999999993     46.308149999999998     49.587249999999997
C      45.650749999999995     45.074249999999992     49.939450000000001
C      46.579149999999991     43.885149999999996     49.966850000000001
C      48.110449999999993     44.116050000000001     50.206450000000004
C      45.278849999999991     47.350049999999996     49.235250000000001
C      43.995349999999995     47.070349999999991     48.740650000000002
C      43.405249999999995     45.718049999999991     49.008049999999997
C      44.165649999999992     44.879449999999991     49.759349999999998
C      45.886649999999996     48.632049999999992     49.312649999999998
C      47.042449999999995     48.957049999999995     50.191450000000003
C      46.237849999999995     42.563449999999989     49.769649999999999
C      48.669849999999990     41.710650000000001     49.993949999999998
C      48.997649999999993     42.966149999999999     50.006550000000004
C      51.029549999999993     44.426549999999992     50.752549999999999
C      50.587049999999984     43.103949999999998     49.790450000000000
C      44.981049999999996     49.594250000000002     48.725449999999995
C      52.206949999999992     48.109249999999989     52.024249999999995
C      52.611449999999991     46.615249999999989     52.263549999999995
C      52.467050000000008     46.926149999999993     49.509450000000001
C      52.238449999999993     48.293349999999990     48.647949999999994
C      51.312350000000002     50.358350000000002     51.375349999999997
C      51.074449999999992     51.479749999999996     47.218950000000000
C      51.090249999999990     52.271949999999990     45.980649999999997
C      52.693050000000007     48.100749999999991     43.829450000000001
C      51.374349999999986     49.990349999999992     47.188949999999998
C      51.235149999999997     51.560949999999991     44.735149999999997
C      52.582749999999983     48.300749999999994     45.250149999999998
C      51.965749999999993     49.369050000000001     43.461649999999999
C      51.820149999999991     49.401550000000000     45.844349999999999
C      51.743649999999995     50.122749999999996     44.552349999999997
C      50.861550000000001     52.025049999999993     48.515550000000005
C      50.679749999999991     53.493650000000002     48.455349999999996
C      50.616549999999997     54.209049999999991     47.109150000000000
C      50.541949999999993     52.301649999999995     43.483850000000004
C      50.907349999999994     48.838349999999991     48.111750000000001
H      50.499350000000000     54.853349999999992     45.127850000000002
H      48.941049999999997     49.940550000000002     51.804149999999993
H      43.442349999999990     47.880150000000000     48.470849999999999
H      42.284749999999995     45.496150000000000     48.692750000000004
H      43.449249999999992     44.157649999999990     50.338650000000001
H      47.145649999999996     49.936149999999998     50.545649999999995
H      45.269949999999994     42.468949999999992     49.289349999999999
H      49.260849999999991     40.770250000000004     50.130049999999997
H      50.966349999999991     44.307949999999991     51.935649999999995
H      51.732849999999992     44.751750000000001     50.011049999999997
H      51.010749999999994     42.207149999999999     50.234749999999991
H      50.791349999999987     43.129249999999999     48.656050000000000
H      53.194449999999989     48.869249999999994     52.065950000000001
H      51.907649999999997     45.855949999999993     52.669449999999998
H      53.715250000000005     46.453149999999994     52.289050000000003
H      51.669049999999991     46.404049999999998     48.902050000000003
H      53.381849999999993     46.376350000000002     49.385750000000002
H      52.641650000000006     49.173249999999996     49.185350000000000
H      52.767350000000000     48.207049999999995     47.735050000000001
H      52.061449999999986     51.125649999999993     51.739350000000002
H      51.970049999999993     49.931049999999999     50.533649999999994
H      53.442850000000000     47.642550000000000     43.185350000000000
H      51.821249999999985     49.682850000000002     42.509950000000003
H      50.961549999999995     51.597049999999996     49.431349999999995
H      50.686549999999997     54.044349999999994     49.298850000000002
H      50.503949999999996     55.229749999999996     47.097750000000005
H      52.963950000000004     47.558749999999989     46.004350000000002
H      50.665349999999997     53.389649999999989     43.566249999999997
H      51.269149999999989     51.918749999999989     42.681550000000001
H      49.644050000000000     52.114249999999998     42.872250000000001
H      50.107149999999990     48.785849999999996     48.811149999999998
H      50.510149999999989     47.910049999999998     47.482250000000001
H      47.233849999999997     41.202349999999996     48.503149999999998
H      51.317649999999993     49.481749999999991     53.490049999999997
N      47.288749999999993     41.455649999999991     49.565750000000001
N      50.704649999999994     53.736249999999998     45.888849999999998
O      44.286349999999992     50.467249999999993     48.530749999999998
