22

C      49.204949999999997     49.001999999999995     49.095899999999993
C      49.739249999999998     50.201200000000000     48.063499999999998
C      47.126050000000006     49.211699999999993     47.454699999999995
C      49.699849999999998     49.424400000000006     46.669599999999996
C      47.899550000000005     48.344899999999996     48.195099999999996
C      48.657449999999997     48.129900000000006     46.941899999999997
C      46.706050000000005     47.674300000000002     48.811099999999996
C      48.455449999999999     46.697800000000001     46.581899999999997
C      46.274550000000005     46.593599999999995     47.935600000000001
C      47.164850000000001     45.982700000000008     46.887899999999995
H      50.133250000000004     48.197500000000005     49.111199999999997
H      48.814849999999993     49.309799999999996     50.140400000000000
H      50.687650000000005     50.909599999999998     48.433399999999999
H      49.154150000000001     51.084099999999992     48.061399999999999
H      46.908050000000003     50.301800000000000     47.223700000000001
H      46.189250000000001     48.962199999999996     46.879899999999999
H      50.660049999999998     49.032600000000002     46.390400000000000
H      49.654449999999997     50.087299999999999     45.859600000000000
H      46.090950000000007     48.355300000000000     49.425500000000000
H      49.260750000000002     46.352999999999994     46.009999999999998
H      45.312349999999995     45.989300000000000     48.296399999999998
H      47.025450000000006     44.915900000000008     46.377600000000001
