48

C      48.212299999999992     49.154764999999983     46.491199999999992
C      47.830100000000002     50.537414999999989     47.092900000000000
C      46.096499999999999     47.424684999999990     50.562400000000004
C      46.053799999999995     48.832644999999992     51.020099999999999
C      47.885099999999994     47.973344999999988     47.220199999999998
C      47.157399999999996     50.881414999999990     48.347199999999994
C      46.998599999999996     47.061474999999987     49.419800000000002
C      46.622100000000003     49.909364999999987     50.392099999999999
C      47.337400000000002     48.266644999999990     48.529000000000003
C      47.048999999999999     49.620674999999984     49.045999999999999
C      48.643699999999995     48.831124999999993     45.143599999999999
C      48.251099999999994     49.621024999999989     44.052000000000000
C      47.897900000000000     51.011684999999993     44.512100000000004
C      47.735500000000002     51.509684999999990     45.931300000000000
C      45.658000000000001     46.383200999999993     51.366799999999998
C      45.059100000000001     46.669827999999988     52.731100000000005
C      44.925199999999997     48.096554999999988     52.925499999999992
C      45.472099999999998     49.269834999999993     52.191499999999998
C      48.963200000000001     47.280624999999993     44.745400000000004
C      49.371299999999998     47.742784999999991     43.410000000000004
C      50.644700000000000     47.567024999999994     42.450800000000001
C      49.031099999999995     49.074214999999988     42.928800000000003
C      48.990399999999994     46.139355000000002     45.673900000000003
C      48.382800000000003     46.521214999999991     46.858799999999995
C      48.191099999999999     45.415854999999986     47.754800000000010
C      47.633600000000001     45.714354999999983     49.094400000000000
C      46.200499999999998     45.015554999999999     50.980800000000009
C      46.853399999999993     44.581154999999988     49.771399999999993
C      45.159999999999997     45.554554999999986     53.856900000000003
C      49.194299999999998     46.728939999999987     42.248800000000003
H      47.197099999999999     52.010544999999986     48.640300000000003
H      46.707999999999998     50.837384999999990     51.086300000000001
H      47.577500000000001     51.691964999999989     43.689900000000002
H      47.027900000000002     52.454544999999989     46.121700000000004
H      44.410600000000002     48.151804999999989     53.962899999999998
H      45.181500000000000     50.270964999999983     52.241500000000002
H      51.589399999999998     46.996830999999993     42.792200000000001
H      49.631999999999998     49.819595000000000     42.337200000000003
H      49.105900000000005     45.001955000000017     45.584600000000002
H      48.378599999999999     44.493754999999986     47.129500000000000
H      45.305099999999996     44.553554999999989     54.098900000000008
H      46.638399999999997     44.184554999999996     51.657200000000003
H      47.446399999999997     43.545455000000011     49.920800000000000
H      46.036400000000000     45.925755000000009     54.154400000000003
H      44.444000000000003     46.008154999999995     54.573299999999996
H      49.663600000000002     45.835055000000004     42.874499999999998
H      48.786199999999994     46.105054999999993     41.426700000000004
H      50.836399999999998     48.615724999999991     42.071800000000003
