6

C      47.434249999999992     47.510699999999986     47.955049999999993
C      48.542149999999999     48.259899999999995     48.321050000000000
H      47.500450000000001     46.659500000000001     47.265349999999998
H      46.511850000000003     48.096899999999998     47.956350000000000
H      49.488149999999997     48.001299999999993     47.955049999999993
H      48.540649999999999     49.340499999999999     48.734650000000002
