22

C      49.134330999999982     48.088449999999995     45.878099999999989
C      47.759829999999987     47.714749999999995     45.295299999999997
C      48.954162999999987     49.325850000000003     46.916899999999991
C      47.119829999999993     47.087450000000004     46.490899999999989
C      48.549205999999984     48.312649999999991     48.139999999999993
C      47.393229999999988     47.416550000000001     48.065800000000003
C      49.221468999999985     48.991749999999996     49.296100000000003
C      46.805329999999998     47.290649999999999     49.303999999999995
C      48.647740999999989     48.680149999999998     50.529499999999992
C      47.514530000000008     47.815749999999994     50.496400000000001
H      50.090319999999977     48.325249999999997     45.139099999999992
H      49.518999999999984     47.214749999999995     46.495500000000000
H      47.867229999999992     47.056249999999991     44.575600000000001
H      47.168030000000016     48.477350000000001     44.827099999999994
H      47.965429999999991     49.878849999999986     46.428899999999992
H      49.797029999999978     50.035049999999998     47.005000000000003
H      45.998329999999982     47.407449999999997     46.237699999999997
H      46.711229999999986     45.964950000000002     46.082199999999993
H      50.098269999999985     49.598150000000004     49.241999999999997
H      45.901730000000015     46.610249999999994     49.627599999999994
H      49.187864999999988     49.136649999999989     51.293999999999990
H      47.186729999999976     47.304949999999991     51.424399999999999
