22

C      48.060599999999994     46.086999999999989     46.497349999999990
C      49.840799999999994     46.277299999999997     48.863349999999997
C      48.770000000000003     47.492800000000003     46.922649999999990
C      49.899200000000000     47.122900000000001     47.709049999999998
C      47.753300000000003     48.207100000000011     47.738849999999999
C      47.413900000000005     48.465900000000005     49.167549999999991
C      47.236700000000006     48.871300000000005     46.531149999999997
C      46.165399999999998     49.190300000000008     49.486550000000001
C      46.248700000000007     49.749200000000002     46.921749999999996
C      45.862500000000004     49.934600000000003     48.325249999999997
H      48.875899999999994     45.335099999999997     46.239049999999999
H      48.020800000000001     45.676200000000009     47.602049999999991
H      47.028900000000000     46.251100000000008     46.360849999999999
H      50.970400000000005     47.615800000000007     48.110450000000000
H      48.803800000000003     46.040400000000005     49.408949999999990
H      49.193500000000007     48.009200000000007     46.115850000000002
H      47.866400000000006     47.655699999999996     49.836050000000000
H      50.689299999999996     45.935900000000004     49.545950000000005
H      47.619000000000007     48.627400000000009     45.483350000000002
H      45.946599999999997     49.810000000000016     50.516649999999998
H      45.551700000000004     50.244600000000005     46.190550000000002
H      45.029599999999995     50.664900000000003     48.261350000000000
