30

C      50.302000000000000     45.312134999999991     49.425849999999997
C      50.065500000000000     47.829435000000004     47.420049999999996
C      48.482200000000006     47.511395000000007     45.515650000000001
C      45.925300000000007     47.952844999999996     50.406550000000003
C      49.020800000000008     47.045295000000010     48.189050000000002
C      49.283500000000004     48.706964999999997     46.144550000000002
C      47.098200000000006     47.244104999999990     49.732949999999995
C      45.762400000000000     49.152515000000001     48.122949999999996
C      47.585800000000006     47.498935000000003     48.403650000000006
C      46.974100000000007     48.481344999999990     47.447350000000007
C      50.177800000000005     47.772455000000001     49.024350000000005
C      49.143900000000002     45.559415000000001     48.399750000000004
C      47.455500000000001     46.210434999999997     50.657550000000008
C      47.736600000000010     48.793745000000001     46.271450000000009
C      48.527200000000008     50.108834999999999     46.307150000000000
C      45.328800000000001     48.844814999999997     49.412050000000001
H      50.723100000000002     47.224825000000010     46.757849999999998
H      45.886200000000002     48.052064999999999     51.438850000000009
H      49.625900000000001     48.482765000000001     49.641550000000002
H      51.232100000000003     47.444315000000003     49.164850000000008
H      49.611900000000006     44.827435000000001     47.638849999999998
H      48.125900000000001     45.252785000000003     48.106749999999998
H      48.482200000000006     45.797764999999998     50.505249999999997
H      46.973600000000005     45.963534999999993     51.590949999999999
H      48.121300000000005     51.172564999999999     46.600249999999996
H      48.218900000000005     50.423155000000001     45.263449999999999
H      45.406800000000004     49.973534999999998     47.562649999999998
H      44.767899999999997     49.775585000000000     49.749350000000000
O      51.082800000000006     45.403334999999998     50.233350000000009
O      48.261499999999998     47.290844999999990     44.409050000000001
