52

C      45.697094999999997     45.998749999999987     48.989099999999993
C      45.994195000000005     45.975349999999999     50.494499999999995
C      50.097225000000009     48.854449999999993     48.858300000000000
C      50.535745000000006     48.242950000000000     50.112200000000001
C      46.860794999999996     46.749149999999993     48.285899999999998
C      47.467595000000003     45.790450000000000     50.693599999999996
C      48.810595000000006     48.193549999999995     48.144599999999997
C      49.660426999999999     47.307449999999996     50.876700000000007
C      48.133795000000006     47.104449999999993     48.700400000000002
C      48.418695000000000     46.770049999999991     50.190099999999994
C      44.341695000000001     45.969749999999998     48.370799999999996
C      43.239294999999998     45.136350000000000     48.887499999999996
C      43.806894999999997     45.288750000000000     50.804400000000001
C      45.022994999999995     45.565449999999991     51.480499999999999
C      51.011645000000001     49.899549999999998     48.700499999999998
C      52.207295000000002     50.492049999999999     49.287299999999995
C      52.518985000000008     49.802749999999996     50.530799999999999
C      51.514165000000006     48.783749999999991     51.014699999999998
C      44.538094999999998     45.950849999999996     46.929899999999996
C      43.311395000000005     45.688249999999989     46.048499999999997
C      42.097795000000005     45.111449999999998     46.594000000000001
C      42.159094999999994     44.870349999999995     48.099100000000000
C      45.706395000000001     46.456649999999989     46.129500000000000
C      46.896394999999998     47.051749999999991     46.872099999999996
C      48.346895000000004     48.593749999999993     45.667600000000000
C      48.095995000000002     48.032149999999994     46.875000000000000
C      53.708855000000014     49.884849999999993     51.271499999999996
C      48.499094999999997     47.849349999999994     44.375799999999998
C      49.726126000000008     49.421349999999997     45.666199999999996
C      47.254495000000006     49.660249999999998     45.509299999999996
H      52.239205000000005     51.769550000000002     46.922199999999997
H      47.556894999999997     45.674749999999996     51.894900000000000
H      49.645731000000005     47.051449999999996     52.027899999999995
H      45.179294999999996     45.656849999999999     52.667600000000000
H      50.630535000000009     50.632349999999995     47.772700000000000
H      51.377305000000007     48.675249999999998     52.119500000000002
H      43.411294999999996     46.098749999999988     45.002899999999997
H      41.485794999999996     44.570549999999990     46.007700000000000
H      41.263395000000003     44.230449999999998     48.493699999999997
H      45.450194999999994     46.161949999999997     45.135199999999998
H      49.448238000000003     50.480249999999991     45.726399999999998
H      48.363495000000000     48.515849999999993     43.332400000000000
H      49.650039000000007     47.877649999999996     43.838299999999997
H      48.387595000000005     46.858049999999999     44.064700000000002
H      50.047794000000010     49.683450000000001     44.612899999999996
H      50.235225000000014     49.054449999999996     46.528799999999997
H      46.677695000000000     49.654849999999989     44.525799999999997
H      46.856795000000005     49.991449999999993     46.503099999999996
H      47.682395000000000     50.721849999999996     45.348500000000001
O      54.736604999999997     50.102049999999998     51.668799999999997
O      42.681195000000002     45.212550000000000     50.366199999999999
S      53.225895000000008     51.454850000000000     48.205399999999997
