70

C      47.120294999999984     49.823529999999977     49.808399999999992
C      48.585175000000000     47.156479999999988     47.225300000000004
C      47.405224999999994     46.172724999999986     47.272900000000007
C      44.827710999999994     49.513409999999986     50.636300000000006
C      48.551754999999993     48.108189999999986     48.277900000000002
C      46.205974999999988     46.559629999999984     48.024699999999996
C      46.204314999999994     50.108699999999992     50.836500000000001
C      47.343024999999990     48.535169999999987     49.055800000000005
C      46.124494999999989     47.681299999999986     49.016000000000005
C      49.417124999999992     46.101282999999988     44.941200000000009
C      49.355784999999990     44.780600000000014     45.413600000000002
C      48.062444999999990     44.146599999999985     46.012200000000007
C      47.000754999999991     44.869099999999989     46.584600000000009
C      49.781514999999992     46.928529999999988     46.217600000000004
C      50.444344999999991     48.276759999999989     46.073900000000009
C      51.101214999999989     43.718699999999998     43.877200000000002
C      49.763744999999993     43.399600000000000     44.308700000000002
C      50.324394999999988     45.447263999999983     46.307000000000002
C      49.726734999999984     46.272182999999984     43.361599999999996
C      45.378891999999993     45.333281539999987     48.398700000000005
C      45.494245999999990     44.299099999999996     47.341800000000006
C      46.839504999999988     45.312200000000011     45.277200000000008
C      48.045094999999982     42.344899999999988     45.781700000000001
C      49.183984999999993     42.044699999999999     43.591499999999996
C      49.263884999999995     42.057100000000005     45.045900000000003
C      46.843874999999990     49.585849999999986     52.293100000000010
C      50.129804999999998     40.995099999999987     45.769300000000001
C      45.325954999999993     54.615019999999987     51.796500000000009
C      45.886614999999992     51.488469999999985     51.192000000000007
C      45.273235999999990     52.420179999999995     50.220900000000000
C      45.368290999999992     53.877479999999984     50.549199999999999
C      44.754194399999989     52.047729999999994     48.915300000000002
C      45.003155999999990     54.913289999999982     49.444300000000013
C      44.473394999999975     53.025369999999988     47.941800000000001
C      44.400295000000000     54.504659999999980     48.278000000000006
H      47.697854999999983     50.513239999999989     49.550500000000000
H      44.539494999999995     49.153259999999989     51.609600000000000
H      43.895595000000021     47.541189999999986     49.811400000000006
H      51.247944999999994     44.908100000000005     46.602199999999996
H      49.441285000000001     48.938099999999984     48.274400000000000
H      49.800224999999990     47.339129999999983     43.248300000000000
H      48.863754999999991     45.839323999999984     42.855599999999995
H      44.163294999999998     45.387066199999985     48.796600000000012
H      45.433015999999995     44.846199999999996     49.270800000000008
H      45.744334999999992     43.766000000000012     46.200199999999995
H      44.764126199999993     43.531900000000000     47.695499999999996
H      46.103754999999992     45.043499999999980     44.568300000000008
H      47.195004999999995     46.240363999999985     44.736400000000003
H      48.027944999999995     42.018299999999996     46.793500000000009
H      46.999634999999991     42.157699999999998     45.294399999999996
H      49.976434999999988     41.363899999999994     43.069100000000006
H      48.134634999999989     41.895800000000001     43.135400000000004
H      46.056434999999993     49.003169999999983     53.158900000000003
H      47.450164999999991     50.369249999999987     52.809100000000001
H      50.589494999999992     40.167500000000011     45.139300000000006
H      50.813764999999997     41.547999999999988     46.474699999999999
H      49.801924999999990     40.616100000000003     46.786699999999996
H      50.155474999999988     45.384632099999983     42.841099999999997
H      45.867414999999994     55.511099999999985     51.984600000000000
H      45.277252999999995     54.038729999999980     52.792700000000011
H      46.451064999999993     52.154219999999988     51.778600000000012
H      44.694994999999999     50.942859999999989     48.729900000000001
H      44.960154999999993     55.832499999999989     49.734600000000000
H      43.938395000000014     52.775289999999991     46.984099999999998
H      43.810395000000007     55.048099999999984     47.633400000000009
H      44.214294999999986     50.320519999999988     50.366800000000012
H      47.619294999999994     48.902779999999986     52.103300000000004
N      45.012686999999993     48.115629999999989     49.678100000000001
O      50.897394999999982     49.068899999999985     45.555199999999999
O      52.189604999999993     43.701600000000006     43.691100000000006
