55

C      47.863899999999987     50.090949999999999     47.065649999999991
C      46.891300000000001     50.043450000000007     48.159349999999996
C      44.545500000000004     44.569749999999999     48.886850000000003
C      48.005100000000013     49.113349999999997     45.955050000000000
C      45.941400000000002     43.746350000000007     47.518049999999995
C      46.221500000000006     48.683650000000000     48.383749999999999
C      45.014499999999998     46.004950000000008     48.825550000000000
C      47.165899999999993     45.163950000000000     45.751049999999999
C      47.361199999999997     47.879750000000001     46.155149999999999
C      46.473699999999994     44.968550000000008     47.027549999999998
C      46.598900000000000     47.667349999999999     47.421549999999989
C      46.135800000000003     46.238450000000000     47.833450000000006
C      45.330299999999994     48.384150000000005     49.471750000000000
C      44.590000000000003     47.194850000000002     49.573949999999989
C      48.809100000000001     51.315650000000005     47.006349999999998
C      48.887000000000000     52.205950000000001     48.166249999999998
C      47.725700000000003     52.188249999999996     49.252749999999999
C      46.911500000000004     51.087850000000003     49.221150000000002
C      45.753199999999993     50.870050000000006     50.344050000000003
C      44.906999999999996     49.654150000000001     50.164049999999996
C      46.992999999999995     48.935050000000004     44.963149999999999
C      49.556699999999992     49.188950000000006     45.547350000000002
C      50.053899999999999     50.768650000000008     46.190849999999998
C      45.053600000000003     52.005350000000007     51.064149999999998
C      47.598299999999995     46.515349999999998     45.555450000000000
C      46.573999999999998     51.075050000000005     51.565049999999999
C      50.528000000000006     47.955250000000007     45.208950000000002
C      49.893500000000003     50.519750000000002     44.826250000000002
C      48.322000000000003     52.497950000000003     46.464349999999996
C      51.679800000000000     50.860349999999997     46.786850000000001
H      43.444699999999997     44.432950000000005     49.643549999999998
H      46.309600000000003     42.720550000000003     47.289349999999992
H      43.707399999999993     47.306449999999998     50.255350000000000
H      49.623200000000011     51.624049999999997     48.864849999999997
H      47.811399999999992     52.903149999999997     50.135550000000002
H      45.398399999999995     53.017350000000008     50.946249999999999
H      44.042299999999997     49.532350000000008     50.755050000000004
H      46.072100000000006     49.634050000000002     45.177149999999997
H      47.433800000000005     48.958050000000000     43.737850000000002
H      44.131900000000002     51.716250000000002     51.521250000000002
H      48.048999999999992     46.549650000000000     44.671849999999999
H      47.696899999999999     44.430250000000001     45.169350000000001
H      47.544100000000000     51.545749999999998     51.471449999999997
H      46.399000000000001     50.193049999999999     52.262149999999998
H      50.261700000000005     47.301950000000005     46.204450000000001
H      50.338999999999999     47.234549999999999     44.185650000000003
H      49.001199999999997     51.060550000000006     44.204749999999997
H      50.672700000000006     50.249250000000004     44.223149999999997
H      51.672100000000000     48.095450000000000     45.468550000000000
H      48.853900000000010     53.279449999999997     45.782550000000001
H      47.294700000000006     52.712150000000008     46.452950000000001
H      51.926699999999997     49.896850000000001     47.602649999999990
H      52.300299999999993     51.604150000000004     47.233849999999997
H      52.555300000000003     50.531750000000002     46.064850000000000
O      44.856300000000005     43.533450000000002     48.145249999999997
