21

C      48.286399999999993     46.891699999999986     45.943849999999991
C      49.660299999999992     47.369000000000000     46.789949999999990
C      46.947000000000003     47.929500000000004     49.642049999999998
C      49.469799999999992     48.839799999999997     47.410150000000002
C      47.218999999999994     47.726600000000005     46.888449999999992
C      47.850299999999990     48.744900000000001     47.463749999999990
C      46.725200000000001     49.090200000000010     46.593149999999994
C      47.661799999999999     48.889600000000002     48.940249999999992
C      46.199799999999996     46.860200000000006     47.813350000000000
C      46.077299999999994     46.749099999999999     49.262349999999998
H      48.146900000000002     45.965999999999994     45.640749999999997
H      48.420199999999994     47.796499999999995     45.196050000000000
H      49.953800000000001     46.730000000000004     47.374049999999997
H      50.432000000000002     47.340900000000005     46.052549999999997
H      46.944400000000002     47.961500000000001     50.803950000000000
H      50.030400000000000     48.934700000000007     48.391249999999999
H      49.561599999999999     49.711299999999994     46.651249999999990
H      46.410200000000003     50.034000000000006     46.136849999999995
H      48.050100000000000     49.709599999999995     49.628149999999991
H      45.567999999999998     46.200000000000003     46.974350000000001
H      45.807299999999998     46.014300000000006     50.097949999999997
