22

C      47.799799999999991     47.013149999999996     46.308299999999996
C      47.331499999999998     47.034950000000002     44.747300000000003
C      47.580700000000000     49.301049999999996     46.418500000000009
C      46.107100000000010     47.352150000000002     47.283500000000004
C      47.319000000000010     48.081949999999999     47.151200000000003
C      47.987400000000001     47.996350000000000     48.528899999999993
C      47.527300000000004     47.573050000000002     49.947800000000001
C      49.422900000000006     47.968150000000001     48.751900000000006
C      48.635100000000001     47.691049999999997     50.777400000000000
C      49.890900000000009     47.553350000000002     50.075000000000003
H      48.145200000000010     50.148950000000006     47.046500000000009
H      48.101800000000004     47.210150000000006     44.110900000000001
H      48.660600000000009     46.363250000000001     46.481500000000011
H      46.228699999999996     47.184050000000006     44.522500000000001
H      47.025600000000004     49.584849999999996     45.449100000000001
H      47.137800000000006     45.851049999999994     44.674100000000003
H      45.158600000000000     47.541549999999994     46.536700000000010
H      46.012800000000006     46.500350000000005     48.020000000000010
H      46.526699999999998     47.309050000000006     50.295700000000011
H      50.129200000000004     47.918849999999999     47.934699999999999
H      48.791500000000006     47.633249999999997     51.889099999999999
H      50.841400000000000     47.249450000000003     50.368900000000011
