63

C      51.170049999999989     49.667549999999991     49.616000000000000
C      49.873849999999997     50.320149999999998     49.337899999999998
C      49.342050000000008     45.461550000000003     47.681000000000004
C      48.162749999999996     45.950749999999999     47.255299999999998
C      51.399350000000005     48.246450000000010     49.157400000000003
C      48.774149999999999     49.626350000000002     48.481299999999997
C      50.430550000000004     46.117550000000008     48.601800000000004
C      47.788950000000007     47.318250000000006     47.564900000000002
C      50.150550000000003     47.639350000000007     48.568800000000003
C      48.772950000000002     48.164950000000005     48.226900000000008
C      52.323349999999998     50.340649999999997     50.118699999999997
C      52.139950000000006     51.808050000000009     50.400500000000001
C      49.812149999999995     51.685749999999999     49.704900000000002
C      49.426049999999996     44.008949999999999     47.712600000000002
C      44.923250000000003     46.685450000000003     46.130699999999997
C      45.812350000000002     45.520150000000001     46.246699999999997
C      47.101850000000006     45.192050000000009     46.557899999999997
C      53.513349999999996     49.547950000000000     50.435300000000005
C      54.573850000000000     50.454549999999998     51.101999999999997
C      54.687649999999998     51.926150000000007     50.710299999999997
C      53.448650000000008     52.546550000000011     50.650700000000008
C      53.570550000000004     48.176250000000010     50.299700000000009
C      52.457150000000006     47.425449999999998     49.797100000000007
C      52.459750000000007     45.879850000000005     49.930900000000001
C      51.428750000000001     45.195650000000001     49.095800000000004
C      55.772550000000003     50.132649999999998     51.684800000000003
C      47.592750000000002     50.135050000000007     48.131499999999996
C      42.919550000000008     47.601750000000010     46.862299999999998
C      41.153150000000004     47.278350000000003     46.277499999999996
C      43.499749999999999     46.817450000000008     45.620600000000003
C      40.647849999999998     44.780450000000002     46.655499999999996
C      42.739849999999997     45.679550000000006     45.344600000000007
C      41.304150000000000     45.900149999999996     45.806500000000007
C      43.192150000000005     44.301450000000003     44.712899999999998
C      40.231650000000009     45.150350000000003     45.007700000000007
C      42.042049999999996     43.498950000000008     44.353299999999997
C      40.662250000000007     43.945050000000009     44.198900000000002
H      46.848149999999997     47.865250000000003     47.081200000000003
H      49.090750000000007     52.466549999999998     49.341500000000003
H      45.030750000000005     47.574449999999999     46.815300000000001
H      45.425450000000005     44.625250000000008     45.635200000000005
H      47.017850000000003     44.068650000000005     46.297500000000007
H      55.582650000000008     52.395449999999997     51.118900000000004
H      53.525750000000009     53.566850000000002     50.742899999999999
H      54.575849999999996     47.829850000000008     50.796299999999995
H      53.276150000000008     45.519250000000000     50.484200000000008
H      51.433850000000000     44.027150000000006     49.324599999999997
H      43.370849999999997     46.984350000000006     47.590300000000006
H      43.217850000000006     48.510950000000008     46.627600000000008
H      40.534749999999995     47.345950000000002     47.158000000000008
H      40.846049999999998     47.997050000000002     45.501799999999996
H      43.498550000000002     47.459650000000011     44.627200000000009
H      41.523550000000007     44.222050000000010     47.148600000000009
H      39.935350000000007     45.094450000000009     47.291400000000003
H      44.159050000000001     44.036950000000004     44.792700000000004
H      39.142249999999997     45.446350000000010     44.756200000000000
H      42.346350000000008     42.433149999999998     44.058100000000003
H      39.846449999999997     43.318449999999999     44.018999999999998
H      50.557350000000007     53.470950000000002     50.219299999999997
N      50.978650000000009     52.504450000000006     50.061299999999996
O      56.857750000000003     50.068449999999999     51.981000000000002
O      46.547450000000005     50.539850000000001     47.834600000000002
O      49.755649999999996     43.052850000000007     47.187700000000000
