64

C      50.694099999999992     49.454599999999999     47.102799999999995
C      50.299499999999995     48.113900000000001     47.025900000000000
C      45.860699999999994     44.797299999999993     49.227699999999999
C      49.527400000000000     50.281300000000002     47.692499999999995
C      44.710300000000004     45.615300000000005     49.484500000000004
C      46.897199999999998     45.983000000000004     48.894199999999998
C      43.592100000000002     48.100200000000001     48.808499999999995
C      44.202100000000002     49.522099999999995     48.734800000000007
C      46.813100000000006     50.633599999999987     48.616000000000000
C      44.552499999999995     47.073300000000003     49.142299999999992
C      48.107399999999998     49.884600000000006     47.878300000000010
C      45.633600000000001     49.651600000000002     48.533400000000000
C      45.959400000000002     47.120099999999994     48.540199999999999
C      47.810400000000001     48.511700000000005     47.724499999999992
C      46.337999999999994     48.433099999999996     47.947699999999998
C      51.996200000000002     49.951699999999988     46.867899999999999
C      53.159800000000004     49.180199999999999     46.259799999999998
C      52.794499999999999     47.739999999999995     46.125900000000001
C      51.380300000000005     47.304500000000004     46.481700000000004
C      42.127700000000004     47.977800000000002     49.060000000000002
C      41.436400000000006     49.218299999999999     49.259399999999999
C      42.135199999999998     50.452799999999996     49.553399999999996
C      43.530199999999994     50.665000000000006     49.376199999999997
C      52.252200000000002     51.406000000000006     47.188999999999993
C      54.551800000000014     51.183099999999996     46.466700000000003
C      53.555700000000002     52.032499999999999     47.022199999999998
C      54.289700000000011     49.999299999999991     45.798200000000001
C      51.224200000000010     52.182900000000004     47.965600000000009
C      49.962800000000001     51.541599999999988     48.292299999999997
C      53.753699999999995     46.662999999999997     46.264099999999999
C      53.359600000000000     45.322299999999998     46.533500000000004
C      52.066100000000006     44.753399999999999     46.258900000000004
C      51.041300000000007     45.869299999999996     46.347700000000003
C      50.115300000000005     44.819000000000003     46.553200000000004
C      51.162700000000001     43.419299999999993     46.450200000000002
C      47.087000000000003     51.339699999999993     49.888000000000005
C      43.299400000000006     45.100300000000004     49.582100000000004
C      46.382400000000004     51.701599999999999     47.667500000000004
H      52.667700000000011     53.639099999999999     47.039000000000001
H      46.012400000000000     43.787300000000002     49.320300000000003
H      47.843199999999996     46.023300000000006     49.450200000000009
H      41.634500000000003     46.906000000000006     49.195099999999996
H      40.480400000000003     49.593000000000004     49.288000000000004
H      41.356200000000001     51.257499999999993     50.015599999999992
H      44.198499999999996     51.558499999999995     49.534199999999998
H      55.519599999999997     51.795400000000001     46.334299999999999
H      54.820999999999998     49.510199999999998     45.101900000000001
H      51.196600000000004     53.210999999999999     47.542099999999991
H      49.139799999999994     52.290199999999999     49.014099999999999
H      54.868600000000001     46.695800000000006     46.264699999999998
H      53.771000000000001     44.293199999999999     46.496000000000002
H      48.617400000000004     47.000799999999998     46.485799999999998
H      47.881500000000003     51.977599999999995     49.618200000000002
H      46.348100000000002     52.363599999999991     50.156999999999996
H      43.749600000000001     44.332300000000004     50.223100000000002
H      42.544200000000004     44.618300000000005     49.081299999999999
H      45.513199999999998     52.261300000000006     48.117499999999993
H      46.353499999999997     51.547700000000006     46.476700000000001
H      47.184600000000003     52.487200000000001     47.493800000000000
H      47.387600000000006     50.868699999999990     50.898099999999999
N      48.890000000000001     47.472499999999997     47.348599999999998
O      49.056200000000004     44.710300000000004     47.077199999999998
O      51.455400000000012     42.360900000000001     46.085000000000001
O      53.691900000000004     53.417100000000005     46.939700000000002
