40

C      46.603899999999996     47.408349999999999     48.180599999999991
C      45.974100000000007     46.365349999999992     47.338899999999995
C      50.328699999999998     44.281649999999999     46.596899999999998
C      48.021200000000007     47.216350000000006     48.594300000000004
C      46.647700000000000     45.168949999999995     46.926400000000001
C      50.185400000000001     46.462149999999994     47.353800000000000
C      48.875500000000002     46.228049999999996     47.883899999999997
C      48.052499999999995     45.199349999999995     47.082999999999998
C      45.917100000000005     48.635249999999999     48.710499999999996
C      44.563800000000001     48.979649999999992     48.237800000000000
C      44.574600000000004     46.638249999999999     47.176600000000001
C      43.754000000000005     47.769049999999993     47.562600000000003
C      46.501300000000001     49.694850000000002     49.554400000000001
C      46.072500000000005     50.967749999999995     49.673800000000000
C      44.755400000000009     51.309749999999994     49.193800000000010
C      44.204400000000007     50.360149999999990     48.309500000000000
C      48.695400000000006     48.628050000000002     49.128599999999992
C      47.794200000000004     49.077349999999996     50.161199999999994
C      51.007700000000000     45.435649999999995     46.803500000000000
C      48.789600000000007     49.849350000000001     48.196500000000000
H      52.044399999999996     42.996250000000003     45.034599999999998
H      48.247100000000003     43.485450000000000     46.082000000000001
H      53.239899999999992     45.310549999999992     46.088899999999995
H      46.175100000000000     44.386749999999992     46.575000000000003
H      50.806299999999993     47.330050000000000     47.437399999999997
H      44.008700000000005     45.832750000000004     46.801600000000001
H      46.923500000000004     51.632049999999992     50.060500000000005
H      43.150000000000006     50.808650000000000     47.780500000000004
H      49.737499999999997     48.521649999999994     49.380499999999998
H      47.589600000000004     48.225949999999997     50.965400000000002
H      48.072800000000001     49.819749999999999     50.859799999999993
H      44.675799999999995     53.226050000000001     47.355899999999998
H      47.861499999999992     49.525549999999996     47.586600000000004
H      49.792500000000004     50.135249999999999     47.609999999999999
H      48.805999999999997     50.818550000000002     48.679699999999997
N      48.841099999999997     44.168449999999993     46.562600000000003
O      52.231300000000005     45.359350000000006     45.804400000000001
O      42.760100000000008     48.309250000000006     47.049099999999996
S      51.549999999999997     42.773949999999999     46.336500000000001
S      44.484499999999997     53.102849999999989     48.822299999999998
