22

C      46.759099999999989     45.578899999999997     48.205854999999993
C      46.620099999999994     46.609800000000007     49.475664999999992
C      47.336800000000011     46.644400000000005     46.957135000000001
C      46.672499999999999     48.270500000000013     49.283535000000001
C      47.998499999999993     47.940799999999996     47.467934999999997
C      47.658599999999993     48.762600000000006     48.588394999999998
C      49.187500000000000     48.308700000000002     46.601385000000001
C      48.356999999999999     49.918900000000001     48.669494999999998
C      49.819100000000006     49.610200000000006     46.698795000000004
C      49.537599999999998     50.354800000000012     47.888044999999998
H      47.516899999999993     44.735600000000005     48.357264999999998
H      45.369799999999998     45.245800000000003     47.982905000000002
H      45.844300000000004     46.386700000000005     50.293134999999999
H      47.241200000000006     46.287400000000005     50.139535000000009
H      46.689800000000005     46.530000000000001     46.071265000000004
H      48.033799999999999     45.907400000000010     46.413294999999998
H      47.039000000000001     48.674400000000006     50.300635000000000
H      45.562299999999993     48.585499999999996     49.357925000000009
H      49.414900000000003     47.742200000000004     45.699365000000000
H      48.024799999999999     50.417600000000007     49.529634999999999
H      50.630200000000002     49.940200000000004     46.028115000000000
H      50.011900000000011     51.264399999999995     48.325474999999997
