22

C      47.944449999999989     45.672149999999995     46.654899999999991
C      47.340649999999997     46.888249999999999     45.876100000000001
C      48.648650000000004     46.052549999999997     47.955399999999997
C      46.515950000000004     47.703249999999997     47.072299999999998
C      48.601550000000003     47.509650000000008     48.629900000000006
C      47.492149999999995     48.262050000000002     48.145099999999999
C      49.454650000000001     48.008949999999999     49.589300000000009
C      47.277950000000004     49.600049999999996     48.674099999999996
C      49.207149999999999     49.385149999999996     49.957099999999997
C      48.236350000000002     50.222549999999998     49.423400000000001
H      47.008749999999992     45.066350000000000     46.786299999999997
H      48.604250000000008     44.970950000000002     46.088999999999999
H      46.534449999999993     46.646249999999995     45.330799999999996
H      48.103149999999999     47.682550000000006     45.443199999999997
H      48.367350000000002     45.341350000000006     48.745500000000007
H      49.594750000000005     45.621449999999996     47.753000000000000
H      45.954549999999998     48.693049999999999     46.793599999999998
H      45.628950000000003     47.021850000000001     47.302900000000001
H      50.371049999999997     47.833550000000002     50.026800000000001
H      46.212750000000000     50.176050000000004     48.327799999999996
H      49.972650000000002     49.978350000000006     50.669200000000004
H      47.877549999999999     51.029049999999998     50.117100000000008
