36

C      48.706499999999991     50.768604999999994     43.284549999999996
C      49.982199999999992     50.659745000000001     44.027249999999995
C      48.884799999999998     46.864055000000015     52.436349999999990
C      47.386899999999997     50.322465000000001     43.675550000000001
C      47.322800000000001     46.806855000000013     50.454349999999991
C      49.991599999999991     49.973104999999997     45.340549999999993
C      49.416399999999996     48.056925000000000     50.308749999999989
C      46.483199999999997     49.271025000000002     45.670049999999989
C      49.534399999999991     48.462804999999996     48.052849999999992
C      46.506599999999992     47.376055000000001     47.776449999999997
C      48.490600000000001     47.424355000000027     51.248349999999988
C      47.586199999999991     49.513484999999996     44.835349999999991
C      48.660299999999992     48.050391999999995     49.112849999999995
C      47.056899999999999     48.322624999999995     46.772549999999995
C      47.692699999999988     46.328455000000012     51.799349999999990
C      48.807499999999990     49.418804999999999     45.523949999999999
C      47.261499999999998     47.488255000000017     49.104549999999989
C      48.485499999999988     48.775784999999999     46.962549999999993
C      45.137899999999988     46.932254999999998     47.571849999999998
C      51.092699999999994     48.323262999999997     47.806749999999994
C      46.497999999999990     45.489255000000014     52.554149999999993
H      44.431100000000001     47.714724599999997     47.239249999999998
H      49.067099999999996     51.331345000000006     42.460250000000002
H      51.032799999999995     50.940055000000001     43.875850000000000
H      48.748899999999992     46.487455000000004     53.539749999999998
H      46.459999999999994     50.828564999999990     43.299049999999994
H      50.776299999999992     50.207915000000000     45.956649999999996
H      50.369000000000000     48.413238999999997     50.669449999999998
H      45.530699999999996     49.188425000000002     45.258949999999999
H      44.700800000000001     45.872955000000026     47.841549999999998
H      51.568899999999999     49.312505000000002     48.005549999999999
H      51.103600000000000     48.463782999999999     46.647649999999999
H      51.360099999999989     47.464855000000007     48.470649999999992
H      45.809299999999993     45.020554999999995     51.724049999999991
H      47.096899999999991     44.668654999999994     52.990849999999995
H      46.062599999999989     46.164355000000000     53.311049999999994
