22

C      47.864799999999995     50.325449999999996     48.610099999999989
C      49.323499999999996     50.615750000000006     48.079100000000004
C      46.695300000000003     49.781649999999999     47.497900000000008
C      49.709699999999998     48.618849999999995     48.056900000000006
C      47.443299999999994     48.488550000000004     47.237900000000003
C      48.584899999999990     47.886449999999996     47.495600000000003
C      46.284899999999993     47.534550000000003     46.994999999999997
C      48.833799999999997     46.559049999999999     47.352399999999996
C      46.385999999999996     46.143050000000002     46.902400000000007
C      47.673499999999990     45.655349999999999     47.256999999999998
H      47.667099999999991     49.990850000000009     49.619099999999996
H      47.665899999999993     51.433750000000003     49.025100000000002
H      49.489199999999997     50.581150000000008     46.946599999999997
H      49.979900000000001     51.437950000000001     48.388100000000001
H      45.687399999999997     49.854250000000008     47.819899999999997
H      46.997000000000000     50.142049999999998     46.380900000000004
H      49.992099999999994     48.307050000000004     49.196599999999997
H      50.666600000000003     48.199950000000001     47.952300000000001
H      45.333399999999997     48.099750000000000     46.814399999999999
H      49.846899999999991     46.035850000000003     47.479400000000005
H      45.488999999999990     45.534849999999999     46.985000000000007
H      47.972299999999990     44.562049999999999     46.922400000000003
