22

C      48.556349999999988     46.128699999999988     46.546049999999994
C      48.370849999999990     47.379099999999994     45.680849999999992
C      48.995949999999993     46.356799999999993     47.885949999999994
C      47.095349999999996     48.373799999999989     46.275149999999996
C      48.293049999999994     47.697900000000004     48.616050000000001
C      47.454650000000001     48.622500000000002     47.805749999999989
C      48.376949999999994     48.141899999999993     49.934649999999991
C      46.529449999999997     49.710999999999999     48.199449999999999
C      47.774349999999998     49.366299999999995     50.487249999999989
C      46.712049999999991     49.917400000000001     49.644049999999993
H      47.581549999999993     45.746299999999991     46.705349999999996
H      49.103349999999992     45.412700000000001     45.927250000000001
H      49.271050000000002     48.076999999999998     45.220149999999990
H      48.498449999999991     47.242699999999999     44.515450000000001
H      48.691449999999989     45.503799999999998     48.766849999999991
H      50.074950000000001     46.377299999999991     48.298549999999992
H      46.090949999999992     48.292599999999993     45.953149999999994
H      47.361649999999997     49.114400000000003     45.653750000000002
H      49.364350000000002     47.902999999999992     50.234449999999995
H      45.925049999999999     50.256399999999999     47.398949999999985
H      48.258649999999989     49.478099999999998     51.484549999999999
H      45.943249999999992     50.587299999999999     50.050849999999997
