57

C      48.961899999999993     46.407589999999992     48.885549999999995
C      48.244799999999998     46.869789999999995     47.703449999999997
C      46.567800000000005     51.696689999999997     48.288649999999997
C      46.560800000000000     53.087389999999999     48.752749999999999
C      48.835599999999999     47.476789999999994     50.162050000000001
C      47.685199999999995     48.324389999999994     47.634549999999997
C      48.910700000000006     50.043889999999998     50.736649999999997
C      47.330100000000002     50.757289999999998     48.898649999999996
C      48.746600000000001     48.920090000000002     49.903750000000009
C      47.862200000000001     49.260890000000003     48.744349999999997
C      49.431100000000001     45.035660000000000     48.753549999999997
C      49.112499999999997     44.288770000000000     47.609749999999998
C      48.450800000000001     44.835400000000000     46.492449999999998
C      47.875600000000006     46.211189999999995     46.474849999999996
C      48.304800000000000     51.103589999999997     49.949550000000002
C      45.971599999999995     51.846489999999989     46.935649999999995
C      45.257000000000005     52.941490000000002     46.246549999999999
C      45.034000000000006     53.979590000000002     47.235549999999996
C      49.785799999999995     44.260069999999999     50.000749999999996
C      49.237899999999996     42.925439999999995     50.058050000000001
C      49.141300000000001     42.077239999999996     48.911749999999998
C      49.106600000000000     42.744759999999999     47.644349999999996
C      49.561400000000006     46.617689999999996     51.136049999999997
C      49.748599999999996     45.067200000000000     51.303750000000001
C      45.625000000000000     54.253689999999999     48.557549999999999
C      47.314800000000005     48.495790000000000     46.228949999999998
C      47.475300000000004     47.284989999999993     45.418149999999997
C      48.778700000000001     47.311789999999988     44.387549999999997
C      51.192099999999996     44.276660000000000     50.550049999999992
C      48.237499999999997     47.083190000000002     51.400349999999996
C      50.734099999999998     47.362389999999998     51.916750000000000
C      46.451200000000000     46.674889999999991     44.509450000000001
H      49.249700000000004     50.009590000000003     51.744149999999998
H      48.560400000000001     44.384279999999997     45.500349999999997
H      48.177400000000006     51.791989999999998     50.704850000000000
H      46.238000000000000     51.104789999999994     45.928750000000001
H      44.734700000000004     52.773290000000003     45.249249999999996
H      44.155199999999994     54.702389999999994     46.922449999999998
H      49.052800000000005     42.531790000000001     50.994650000000000
H      48.788700000000006     40.995210000000000     48.885249999999999
H      48.655699999999996     42.242619999999995     46.698850000000000
H      49.297299999999993     44.701759999999993     52.172550000000001
H      46.935999999999993     53.445189999999997     49.976950000000009
H      45.441400000000002     55.004790000000000     49.234349999999999
H      46.743799999999993     49.127589999999998     45.452050000000000
H      49.591300000000004     47.439290000000000     45.130649999999996
H      49.116799999999998     47.049490000000006     43.207850000000001
H      48.451800000000006     48.103389999999997     43.613050000000001
H      51.844800000000006     44.896329999999999     50.073850000000000
H      51.539500000000004     43.269030000000001     50.444849999999995
H      47.137199999999993     46.874089999999995     51.396449999999994
H      50.269099999999995     47.803089999999997     52.792149999999999
H      51.007800000000003     48.359690000000001     51.267049999999998
H      51.498699999999999     46.624390000000005     51.882249999999999
H      46.216700000000003     47.326389999999996     43.569249999999997
H      46.663700000000006     45.568289999999998     44.547849999999997
H      45.245099999999994     46.888390000000001     44.921849999999999
