22

C      46.410649999999990     46.292999999999992     47.624799999999993
C      46.364559999999997     47.127799999999993     46.263300000000001
C      47.048489999999987     46.784499999999994     48.820399999999999
C      46.903659999999988     48.705299999999994     46.700200000000002
C      47.916639999999987     48.019099999999995     48.773199999999996
C      47.948599999999999     48.728199999999987     47.556000000000004
C      48.906920000000000     48.364599999999996     49.827700000000000
C      48.809119999999993     49.878100000000003     47.154400000000003
C      49.955019999999990     49.234299999999990     49.540799999999997
C      49.840319999999991     49.863199999999992     48.201000000000001
H      45.548109999999994     46.322500000000005     48.227100000000000
H      46.866839999999996     45.299999999999997     47.421500000000002
H      47.193879999999993     46.550600000000003     45.312599999999996
H      45.319080000000000     47.227499999999992     45.684999999999995
H      47.424469999999985     45.842600000000004     49.252400000000002
H      46.401169999999993     46.888499999999993     49.652600000000000
H      47.208900000000000     48.971400000000003     45.530600000000000
H      46.070099999999996     49.528999999999996     46.808100000000003
H      48.934619999999995     47.767399999999995     50.687400000000004
H      48.764619999999994     50.700000000000003     46.235099999999996
H      50.680920000000000     49.527799999999999     50.478100000000005
H      50.659019999999998     50.498699999999999     48.290900000000001
