5

C      47.929099999999991     48.281449999999992     48.165199999999999
H      48.763199999999998     49.027250000000002     48.515100000000004
H      47.888700000000000     48.566949999999999     47.075400000000002
H      47.236800000000002     48.445849999999986     48.924599999999998
H      48.206499999999998     46.972749999999998     47.721299999999999
