22

C      48.650799999999997     49.795000000000002     46.975749999999991
C      47.437200000000004     50.045800000000000     48.008050000000011
C      49.417400000000001     48.389899999999997     47.359150000000000
C      46.882300000000001     48.885199999999998     49.077650000000006
C      48.739999999999995     47.335999999999999     48.275850000000005
C      47.679900000000004     47.542100000000005     49.192050000000009
C      48.474599999999995     46.087000000000003     47.514950000000013
C      48.903300000000002     47.001000000000005     49.700350000000000
C      47.083200000000005     45.752300000000005     47.806150000000002
C      46.618099999999998     46.433599999999998     48.955050000000000
H      49.280900000000003     50.822599999999994     46.940250000000006
H      48.353600000000000     49.527400000000000     45.933549999999997
H      46.612899999999996     50.548500000000004     47.839050000000000
H      48.032799999999995     50.604399999999998     48.828950000000006
H      50.420500000000004     48.700199999999995     47.770750000000007
H      50.048000000000002     48.039400000000001     46.532849999999996
H      45.808700000000002     48.725700000000003     49.072249999999997
H      46.967399999999998     49.451899999999995     50.066450000000003
H      49.124899999999997     45.527299999999997     46.941649999999996
H      48.959599999999995     46.093900000000005     49.981049999999996
H      46.404600000000002     45.177400000000006     47.227450000000005
H      45.579499999999996     46.151100000000000     49.380350000000007
