22

C      47.258469999999988     45.728649999999995     48.727849999999997
C      46.621940000000002     46.308250000000001     47.534850000000006
C      47.750540000000008     47.199449999999999     49.575050000000005
C      47.628859999999996     46.878050000000002     46.535050000000005
C      48.576119999999996     48.168750000000003     48.580950000000001
C      48.432449999999996     48.152249999999995     47.107349999999997
C      49.330319999999993     48.947450000000003     49.440049999999999
C      49.864039999999996     50.142349999999993     48.853149999999999
C      49.269219999999997     49.289050000000003     46.553750000000001
C      49.851140000000001     50.101649999999992     47.403149999999997
H      46.499130000000001     45.134950000000003     49.324950000000001
H      47.896629999999995     44.919250000000005     48.411950000000004
H      46.062129999999996     47.270250000000004     47.920249999999996
H      45.633339999999997     45.853750000000005     46.955150000000003
H      47.033980000000000     47.391850000000005     50.374949999999998
H      48.537399999999998     46.897449999999992     50.301150000000007
H      47.309869999999997     46.821050000000000     45.452150000000003
H      48.420690000000000     46.056650000000005     46.151250000000005
H      49.462280000000000     49.002449999999996     50.547849999999997
H      50.366660000000003     50.887450000000001     49.526650000000004
H      49.295569999999991     49.566050000000004     45.458750000000002
H      50.286629999999995     51.080749999999995     47.234850000000009
