22

C      46.241099999999989     47.226954999999990     49.552799999999998
C      46.408099999999997     46.038154999999989     48.504800000000003
C      47.554099999999998     47.738485999999995     50.067400000000006
C      47.371200000000009     46.462354999999988     47.382000000000005
C      48.320200000000007     48.375095000000002     48.785399999999996
C      48.214500000000001     47.755149000000003     47.467399999999998
C      49.141900000000000     49.516895000000005     48.634399999999999
C      48.815300000000001     48.356525000000005     46.242699999999999
C      49.902899999999995     49.891204999999999     47.643000000000001
C      49.816300000000005     49.399754999999999     46.343599999999995
H      45.702399999999997     46.970254999999995     50.280900000000003
H      45.671599999999998     48.002879000000007     48.933400000000006
H      46.828499999999998     45.124154999999988     49.167200000000008
H      45.460000000000001     45.907754999999995     48.139300000000006
H      48.204000000000001     46.982354999999998     50.434799999999996
H      47.339599999999997     48.569145000000006     50.814099999999996
H      47.743000000000002     45.428154999999990     47.021500000000003
H      47.033699999999989     46.326554999999999     46.335000000000008
H      49.352700000000006     49.779835000000006     49.628600000000006
H      48.732500000000009     47.809335000000004     45.185900000000004
H      50.539999999999999     50.875845000000012     47.820800000000006
H      50.113399999999992     49.948835000000003     45.518100000000004
