91

C      50.322149999999993     50.434099999999994     48.666249999999991
C      49.871650000000002     49.497900000000001     49.705950000000009
C      49.195050000000002     52.066000000000003     44.961850000000005
C      48.974950000000000     51.535200000000003     46.301150000000000
C      49.950150000000001     51.002700000000004     47.302550000000004
C      48.488250000000001     49.123999999999995     49.867650000000005
C      49.036050000000003     50.058800000000005     46.546350000000011
C      46.630250000000004     50.264499999999998     48.093049999999998
C      47.802650000000007     49.538399999999996     47.280149999999999
C      47.770750000000000     49.338499999999996     48.632550000000002
C      51.782249999999998     50.710999999999999     48.975650000000009
C      52.083649999999999     49.964300000000001     50.279050000000005
C      50.810050000000011     49.145700000000005     50.706049999999998
C      50.745849999999997     52.337100000000007     42.350850000000001
C      48.845150000000004     53.369600000000005     44.310549999999999
C      49.651750000000000     52.444600000000001     43.616149999999998
C      52.652949999999997     50.759799999999998     47.824750000000002
C      52.434350000000002     52.305999999999997     46.869950000000010
C      51.644050000000000     51.041699999999992     46.629650000000005
C      50.934050000000006     49.397199999999998     44.889450000000004
C      49.350050000000003     49.252700000000004     45.281849999999999
C      52.903749999999995     49.879599999999996     49.225450000000002
C      51.439250000000008     49.086799999999997     43.423250000000003
C      51.883850000000002     50.385800000000003     45.275750000000009
C      49.410150000000002     47.651299999999999     45.331949999999999
C      48.644650000000006     54.551800000000000     44.615150000000007
C      49.369750000000003     46.295100000000005     53.485149999999997
C      50.723350000000003     46.233800000000002     51.276650000000011
C      49.397950000000002     51.789299999999997     51.710650000000008
C      50.785950000000007     52.092299999999994     51.534650000000006
C      46.881250000000001     44.362600000000000     51.567850000000000
C      45.370150000000002     44.159300000000002     51.760650000000005
C      50.384350000000005     47.725000000000001     51.034350000000011
C      47.047750000000001     45.796399999999998     51.617049999999999
C      44.674950000000003     45.493800000000000     51.981650000000009
C      48.241950000000003     46.114199999999997     52.593550000000000
C      49.763050000000000     45.507000000000005     52.347850000000001
C      45.716650000000001     46.517099999999999     51.933150000000005
C      47.673450000000003     43.128200000000000     51.442349999999998
C      46.893350000000005     41.873899999999999     51.376750000000008
C      45.460650000000001     41.659199999999998     51.370150000000002
C      44.813949999999998     42.812600000000003     51.866750000000003
C      46.684150000000002     46.656300000000002     50.478250000000010
C      49.869450000000001     43.997100000000003     52.262549999999997
C      49.225250000000003     43.064000000000000     51.113650000000000
C      51.443750000000001     50.268599999999999     51.551450000000010
C      50.176350000000006     41.771999999999998     50.453450000000011
C      43.742650000000005     45.720399999999998     53.412550000000003
C      43.333150000000003     45.945200000000000     51.847950000000004
H      47.907650000000004     48.786799999999999     51.084650000000003
H      51.982250000000001     52.282399999999996     42.827150000000010
H      48.657150000000001     49.500299999999996     44.792450000000009
H      50.763650000000005     49.576700000000002     42.554450000000010
H      52.507150000000003     49.372399999999999     43.228749999999998
H      51.170049999999996     48.071799999999996     43.117049999999999
H      52.886950000000006     50.513899999999992     44.762450000000008
H      50.594850000000001     51.611400000000003     41.611950000000000
H      48.516050000000000     47.054299999999998     45.764749999999999
H      50.112749999999998     47.314399999999999     46.098649999999999
H      49.574350000000003     47.283299999999997     44.333649999999999
H      49.154450000000004     55.226500000000001     43.947650000000003
H      48.534950000000002     55.198300000000003     45.475250000000010
H      44.987550000000006     47.652000000000001     53.579550000000005
H      51.095450000000007     52.646400000000000     50.594349999999999
H      50.543550000000003     45.662999999999997     50.375650000000000
H      51.814150000000005     46.396299999999997     51.463950000000004
H      45.893850000000000     48.733800000000002     52.345150000000011
H      45.927349999999997     46.221299999999999     49.830649999999999
H      49.771650000000001     47.219400000000000     53.751950000000001
H      51.141550000000002     52.738500000000002     52.376150000000003
H      49.413450000000005     47.615499999999997     50.511650000000010
H      47.314950000000003     41.191099999999999     50.790750000000010
H      44.734650000000002     40.773499999999999     51.006650000000000
H      43.755050000000004     42.821200000000005     52.116350000000004
H      49.287849999999999     43.665900000000001     53.314450000000001
H      47.660950000000007     46.834900000000005     50.135250000000006
H      50.915050000000001     43.722499999999997     52.129150000000003
H      49.028849999999998     43.707000000000001     50.375350000000005
H      50.885849999999998     50.350000000000001     52.507650000000005
H      50.779850000000003     40.988799999999998     50.954250000000009
H      49.494850000000007     41.347600000000000     49.607150000000011
H      51.099650000000004     42.186199999999999     49.793050000000001
H      51.011450000000004     53.282200000000003     41.851550000000010
H      43.331650000000003     44.971100000000000     51.168150000000004
H      43.073749999999997     46.811999999999998     51.380850000000002
H      44.190350000000002     48.349900000000005     52.097749999999998
N      45.229850000000006     48.055499999999995     52.615850000000002
O      52.926250000000003     53.256600000000006     46.444350000000007
O      45.515149999999998     50.377400000000002     47.756350000000005
O      48.442950000000003     51.412700000000001     52.151350000000001
O      43.545949999999998     45.090000000000003     54.388050000000000
