22

C      48.893149999999991     45.798299999999990     47.394449999999992
C      48.937750000000001     46.069499999999991     48.936250000000001
C      49.281349999999996     47.368799999999993     46.902749999999997
C      47.621150000000000     46.530799999999999     49.468749999999993
C      48.147449999999999     48.218099999999993     47.461350000000003
C      47.354549999999996     47.966799999999992     48.700150000000001
C      47.871450000000003     49.167999999999992     46.614150000000002
C      46.578350000000000     49.160100000000000     48.895049999999998
C      46.853549999999998     50.153999999999996     46.897849999999998
C      46.187950000000001     50.167299999999997     48.069049999999997
H      47.699350000000003     45.357699999999994     47.290450000000000
H      49.477849999999997     44.983499999999992     46.952050000000000
H      49.676650000000002     46.726500000000001     49.314349999999997
H      49.217949999999995     44.955100000000002     49.182150000000000
H      50.459150000000001     47.531300000000002     47.022550000000003
H      49.568949999999994     47.515900000000002     45.874549999999999
H      47.751449999999998     46.712400000000002     50.418050000000001
H      47.020150000000001     45.672799999999995     48.895150000000001
H      48.348750000000003     49.420999999999992     45.581949999999999
H      46.077849999999998     49.054400000000001     49.854750000000003
H      46.695850000000000     50.971800000000002     46.114049999999999
H      45.540849999999999     51.044899999999998     48.367449999999998
