20

C      46.071050000000000     48.006399999999992     47.217749999999995
C      44.923349999999999     46.128900000000002     46.364350000000002
C      46.383050000000011     50.065500000000000     47.792750000000012
C      46.027250000000009     46.500399999999999     47.218150000000009
C      48.398049999999998     48.861800000000002     47.847149999999999
C      46.977450000000005     48.954899999999995     47.484150000000000
C      49.613650000000007     48.218299999999999     47.389750000000006
C      48.990449999999996     49.432199999999995     49.199550000000002
C      50.836050000000000     48.536699999999996     48.117650000000012
C      50.408349999999999     49.190899999999999     49.361250000000013
H      46.947850000000003     50.881500000000003     48.112550000000013
H      44.566250000000011     45.118499999999997     46.302750000000003
H      44.199750000000009     46.877200000000002     45.898949999999999
H      45.329950000000011     49.962999999999994     47.611050000000006
H      44.983150000000009     48.106499999999997     46.849350000000001
H      46.556049999999999     45.757300000000001     47.595550000000003
H      49.708050000000000     47.488600000000005     46.510350000000003
H      48.366450000000000     50.089900000000000     49.814450000000008
H      51.800249999999991     47.951400000000007     47.995350000000002
H      51.039250000000010     49.591200000000001     50.101050000000001
