22

C      47.940799999999996     50.626749999999994     48.165799999999990
C      49.478700000000003     50.074150000000003     47.943899999999999
C      46.961799999999997     49.764550000000000     47.325699999999998
C      49.775300000000001     48.607849999999999     48.640700000000002
C      47.210899999999995     48.232050000000001     47.611699999999999
C      48.549000000000007     47.751750000000001     48.154800000000002
C      46.429000000000002     47.231250000000003     46.916899999999998
C      48.940399999999997     46.360450000000000     48.350800000000000
C      46.944500000000005     45.865749999999991     46.922899999999998
C      48.139499999999998     45.422349999999994     47.614199999999997
H      47.861400000000003     50.633349999999993     49.240200000000002
H      47.834100000000007     51.623350000000002     47.792299999999997
H      50.165099999999995     50.997850000000000     48.416999999999994
H      49.686000000000007     50.018549999999991     46.819699999999997
H      45.909999999999997     50.067749999999990     47.496000000000002
H      47.395700000000005     49.944649999999996     46.266900000000000
H      50.145799999999994     48.746150000000000     49.733100000000000
H      50.666600000000003     48.098050000000001     48.333700000000000
H      45.333399999999997     47.443749999999994     46.627499999999998
H      49.920400000000001     46.125649999999993     48.686799999999998
H      46.498599999999996     44.982249999999993     46.275799999999997
H      48.303399999999996     44.376649999999998     47.760599999999997
