8

C      47.988349999999997     48.620849999999983     48.052179999999993
C      47.961850000000005     47.084149999999994     47.917450000000002
H      47.353850000000001     49.477249999999998     47.919870000000003
H      48.267050000000005     48.572649999999996     49.205010000000001
H      47.801150000000000     46.929549999999992     46.794989999999999
H      48.820650000000008     46.550150000000002     48.116489999999999
H      47.169249999999998     46.522750000000002     48.520370000000000
H      48.830750000000002     49.012749999999997     47.309849999999997
