41

C      49.292149999999992     47.179049999999997     49.427399999999992
C      48.346550000000001     47.366749999999996     50.558199999999999
C      46.359549999999999     48.168650000000000     45.700099999999992
C      45.065649999999998     48.915549999999996     46.070200000000000
C      48.820349999999998     47.238249999999994     48.012400000000000
C      47.004850000000005     47.696950000000001     50.139600000000002
C      47.557549999999999     47.757450000000006     46.296199999999999
C      45.335149999999999     48.698950000000004     48.616600000000005
C      47.470950000000002     47.747050000000002     47.784400000000005
C      46.480450000000005     48.064950000000010     48.856300000000005
C      50.485849999999999     46.802650000000000     50.145899999999997
C      50.864149999999988     46.698050000000002     51.571399999999997
C      49.942149999999991     47.086650000000006     52.663600000000002
C      48.696649999999998     47.184550000000002     52.098200000000006
C      44.263050000000000     48.460849999999994     44.931200000000004
C      46.307850000000002     48.120150000000010     44.216399999999993
C      43.085050000000003     49.502449999999996     47.837800000000001
C      44.463950000000004     48.979250000000008     47.397999999999996
C      51.563249999999996     46.042850000000001     49.321899999999999
C      51.507250000000006     45.329650000000001     48.111099999999993
C      52.510649999999991     45.527350000000006     50.400999999999996
C      52.229549999999996     46.086250000000000     51.699600000000004
C      42.971249999999998     50.429349999999999     46.759199999999993
C      47.250550000000004     47.615250000000003     43.018500000000003
C      44.933750000000003     48.290149999999997     43.710799999999992
H      49.580950000000009     47.093350000000001     47.320700000000002
H      46.291350000000001     48.298550000000006     50.574100000000001
H      48.574550000000002     47.272150000000003     45.622100000000003
H      44.835050000000003     49.040450000000000     49.500399999999999
H      50.228150000000007     47.174550000000004     53.694199999999995
H      47.789450000000002     46.992150000000002     52.470200000000006
H      42.700650000000003     49.472350000000006     48.865799999999993
H      53.299349999999997     44.738450000000000     50.124600000000001
H      52.542450000000009     45.847450000000002     52.753100000000003
H      48.311149999999998     47.716049999999996     43.115499999999997
H      46.953650000000003     46.606450000000002     42.721800000000002
H      46.881950000000003     48.237150000000000     42.305800000000005
H      43.122850000000000     48.784350000000003     45.053200000000004
H      44.382350000000002     47.825149999999994     42.940799999999996
O      42.717250000000000     51.261550000000000     46.102999999999994
O      51.847049999999996     45.696350000000002     47.113399999999999
