19

C      49.241599999999984     46.576200000000000     47.561799999999998
C      48.817899999999995     46.539499999999997     46.066900000000004
C      47.695499999999996     47.625899999999994     45.826200000000000
C      48.222099999999998     47.456499999999998     48.346400000000003
C      47.471499999999992     47.970999999999997     47.130400000000009
C      46.550500000000000     49.037500000000001     47.478800000000007
C      48.157299999999992     48.129700000000007     49.639099999999999
C      46.611899999999991     49.681300000000000     48.704900000000009
C      47.260800000000003     49.192699999999995     49.920600000000007
H      49.441099999999992     45.595599999999997     47.920800000000000
H      50.246899999999997     46.542300000000004     47.509399999999999
H      48.590099999999993     45.478900000000003     45.813900000000004
H      49.701599999999999     46.732800000000005     45.417200000000008
H      48.094799999999992     48.403500000000001     45.169499999999999
H      46.900399999999991     47.130000000000003     45.224699999999999
H      45.753100000000003     49.303199999999997     46.562200000000004
H      48.947000000000003     48.121600000000008     50.430099999999996
H      46.035799999999995     50.521099999999997     49.176500000000004
H      47.169499999999999     49.750200000000000     50.830500000000001
