22

C      49.169349999999994     50.239399999999989     47.304600000000001
C      49.701450000000008     49.022299999999994     46.497500000000002
C      47.690849999999998     50.129999999999988     48.056399999999996
C      49.602950000000007     47.799799999999998     47.391500000000008
C      47.377549999999999     48.639199999999995     48.430800000000005
C      48.298550000000006     47.564099999999989     48.201800000000006
C      46.235849999999999     48.254299999999994     49.227400000000003
C      48.121750000000006     46.345399999999991     48.880400000000009
C      46.085149999999999     46.899499999999996     49.870000000000005
C      46.980850000000004     45.841699999999996     49.641300000000001
H      49.867150000000009     50.484400000000001     48.047200000000004
H      49.058450000000008     51.139299999999999     46.578299999999999
H      50.722149999999999     49.357199999999999     46.133300000000006
H      48.968150000000009     48.874499999999991     45.455100000000002
H      46.913550000000001     50.484499999999990     47.297399999999996
H      47.117050000000006     50.978499999999990     48.661400000000000
H      50.417749999999998     48.306599999999996     47.994700000000009
H      50.235650000000007     46.849399999999996     46.715900000000005
H      45.387950000000004     48.913399999999989     49.328299999999999
H      48.955650000000006     45.636499999999991     48.880200000000002
H      45.277850000000001     46.603299999999997     50.544899999999998
H      46.894350000000003     44.860700000000001     49.853099999999998
