6

C      47.742949999999986     47.267249999999990     48.109349999999992
C      48.361549999999994     48.487850000000002     47.771949999999997
H      47.092449999999999     46.740850000000002     47.368649999999995
H      47.456249999999997     46.760550000000002     49.008350000000000
H      48.907550000000001     49.259149999999998     48.439949999999989
H      48.039649999999995     48.951450000000001     46.991650000000000
