15

C      45.663599999999981     48.449049999999986     48.117999999999995
C      49.158999999999992     49.105850000000004     47.474199999999996
C      47.163299999999992     48.058750000000003     48.018299999999996
C      49.890599999999992     47.896249999999995     47.892799999999994
C      47.795000000000002     49.324250000000006     47.602300000000000
C      49.162899999999993     46.738749999999996     48.274799999999985
C      47.768000000000001     46.849949999999993     48.382199999999997
H      45.456399999999988     49.431749999999994     48.560900000000004
H      49.878599999999992     49.928550000000001     47.198300000000003
H      44.953299999999999     47.649150000000006     48.259900000000002
H      45.325400000000002     48.928950000000000     47.246299999999991
H      51.046700000000001     47.888750000000002     48.242899999999992
H      47.245499999999993     50.216949999999997     47.386099999999999
H      49.746299999999991     45.783050000000003     48.456099999999992
H      47.324999999999989     45.997749999999996     48.801699999999997
