81

C      48.945699999999988     43.785149999999987     50.013509999999989
C      51.035200000000003     48.064650000000000     48.743139999999997
C      50.697100000000006     45.472849999999994     46.611030000000000
C      49.907600000000002     44.630849999999995     50.383939999999996
C      49.935900000000004     49.936350000000004     50.237139999999997
C      50.987700000000004     45.500050000000002     48.025379999999998
C      51.182000000000002     46.552850000000007     49.073429999999995
C      51.073500000000010     48.891250000000014     50.025629999999992
C      50.727599999999995     45.260550000000009     49.507099999999994
C      50.510500000000008     48.576149999999998     47.541379999999997
C      50.081800000000001     48.207449999999994     46.196929999999995
C      50.747300000000010     45.957750000000004     44.744180000000000
C      50.224400000000003     46.708349999999996     45.936989999999994
C      51.189599999999999     50.114350000000002     50.794149999999995
C      52.495300000000000     48.476250000000007     49.444779999999994
C      51.208900000000000     49.307050000000004     46.353879999999997
C      51.037400000000005     50.725949999999997     45.955520000000000
C      50.873300000000000     45.752049999999997     43.482270000000000
C      46.895200000000003     47.127350000000007     45.201740000000001
C      46.329899999999995     47.884550000000004     43.792040000000000
C      48.734200000000001     48.796150000000011     45.645280000000000
C      46.257900000000006     49.396550000000005     44.479019999999998
C      47.354900000000001     48.159649999999999     46.286859999999997
C      46.356600000000000     49.193250000000006     45.971589999999999
C      47.235799999999998     47.568550000000002     47.585290000000001
C      45.341600000000000     49.406750000000002     47.001669999999997
C      46.146299999999997     47.711849999999998     48.593859999999999
C      45.293199999999999     48.836250000000007     48.416509999999995
C      44.060299999999998     52.977450000000005     51.502049999999997
C      44.609200000000001     52.367750000000001     52.903649999999999
C      44.272099999999995     51.870249999999999     50.260759999999998
C      45.562100000000001     51.089449999999999     52.717349999999996
C      45.813000000000002     51.600049999999996     50.265770000000003
C      46.442400000000006     51.246650000000002     51.428349999999995
C      46.688600000000008     51.658950000000004     49.189549999999997
C      47.974999999999994     51.157550000000001     51.602949999999993
C      48.038100000000000     51.020150000000001     49.154599999999995
C      48.682900000000004     50.716250000000002     50.358499999999992
C      49.411900000000003     43.263649999999998     45.403219999999997
C      48.964299999999994     43.059849999999997     44.157339999999998
C      49.992200000000011     44.204650000000001     46.182259999999999
C      49.814300000000003     42.711449999999999     46.776750000000000
C      48.144599999999997     43.590450000000004     43.172339999999998
C      48.881399999999999     42.344750000000005     43.161259999999999
H      50.125299999999996     44.989850000000004     51.429050000000004
H      51.653000000000006     50.946650000000005     51.064749999999989
H      52.949200000000005     49.355549999999994     48.847759999999994
H      53.055999999999997     47.730949999999993     50.131889999999999
H      52.295500000000004     49.025750000000002     46.268319999999996
H      50.817599999999999     46.527749999999997     42.756479999999996
H      51.232600000000005     44.767150000000001     43.296559999999999
H      47.704400000000007     46.318049999999999     45.221170000000001
H      45.959699999999998     46.712649999999996     45.699289999999998
H      45.324100000000001     47.457650000000001     43.310910000000000
H      47.162800000000004     47.844750000000005     43.170169999999999
H      48.775000000000006     50.104249999999993     45.953029999999998
H      48.943300000000008     48.774950000000004     44.547069999999998
H      45.308099999999996     49.717550000000003     44.198569999999997
H      46.971999999999994     50.181650000000005     44.081099999999999
H      48.321100000000001     47.662050000000008     47.961689999999997
H      44.420500000000004     49.678550000000001     46.773660000000000
H      46.336600000000004     47.238950000000003     49.677989999999994
H      44.460599999999999     49.067850000000007     49.060739999999996
H      42.944000000000003     53.362750000000005     51.479649999999992
H      44.284899999999993     54.048050000000003     51.359849999999994
H      43.609399999999994     52.220550000000003     53.265349999999998
H      44.894199999999998     53.301749999999998     53.344650000000001
H      43.928100000000001     52.368650000000002     49.302299999999995
H      43.952600000000004     50.880049999999997     50.344919999999995
H      44.616299999999995     50.410950000000000     52.535149999999987
H      46.364300000000000     50.770150000000001     53.463250000000002
H      46.527500000000003     52.250450000000001     48.360740000000000
H      48.540300000000002     51.315250000000006     52.595150000000004
H      48.329000000000008     50.585250000000002     48.105489999999996
H      49.281800000000004     51.820849999999993     50.630649999999989
H      50.698099999999997     41.951949999999997     46.830389999999994
H      48.687600000000003     42.668449999999993     47.197509999999994
H      47.279700000000005     44.220950000000002     42.810139999999997
H      49.658900000000003     42.006649999999993     42.536749999999998
O      48.255700000000004     43.051249999999996     49.456080000000000
O      50.763800000000003     51.808650000000000     46.082089999999994
