22

C      46.748849999999997     46.622999999999990     49.754399999999990
C      47.993250000000003     47.028299999999994     50.344499999999996
C      46.781149999999997     46.729599999999998     48.186000000000000
C      48.572350000000000     48.337499999999999     49.739199999999997
C      47.881250000000009     47.639299999999999     47.539899999999996
C      48.582949999999997     48.646099999999997     48.283999999999999
C      48.099750000000000     47.642199999999995     46.085299999999997
C      49.607749999999996     49.493000000000002     47.739799999999995
C      49.071449999999999     48.433000000000000     45.474199999999996
C      49.458950000000002     49.529199999999996     46.328499999999998
H      46.352350000000001     45.809300000000000     50.377000000000002
H      46.200550000000007     47.489500000000000     50.158200000000001
H      48.900149999999996     46.343399999999995     50.054800000000007
H      48.029750000000007     47.112999999999992     51.540199999999999
H      46.903250000000000     45.657999999999994     47.772199999999998
H      45.797650000000004     47.186099999999996     47.957400000000000
H      49.569950000000006     48.106800000000000     50.157899999999991
H      48.300750000000008     49.205899999999993     50.429099999999998
H      47.656649999999999     46.819399999999995     45.521200000000000
H      50.187049999999999     50.342000000000006     48.443300000000001
H      49.258150000000001     48.450399999999995     44.459800000000001
H      50.202349999999996     50.143200000000000     45.834199999999996
