5

C      47.956449999999982     48.137849999999993     48.100167499999998
H      48.245049999999992     47.141649999999998     48.507547500000001
H      47.169849999999997     48.093649999999997     47.248072500000006
H      48.830150000000003     48.473849999999999     47.419148500000006
H      47.992249999999999     48.858350000000002     48.751927499999994
