22

C      47.966249999999988     48.463900000000002     48.199469999999984
C      48.313349999999993     49.058900000000008     45.611069999999998
C      45.983649999999997     48.303200000000004     49.859724000000000
C      48.678850000000004     49.397900000000007     47.147269999999992
C      47.118150000000000     47.708300000000008     49.394570000000002
C      46.491949999999996     48.707099999999997     48.555869999999999
C      47.568549999999995     46.732799999999997     50.434015000000002
C      49.731249999999996     48.739200000000011     50.127388000000010
C      48.955749999999995     46.393700000000010     50.665570000000002
C      50.033049999999996     47.302400000000006     50.310782000000003
H      47.473450000000000     49.784800000000004     45.156169999999989
H      48.097549999999991     47.294400000000010     48.093269999999990
H      47.863349999999997     48.099600000000009     45.304569999999998
H      48.899049999999995     49.661400000000000     44.881270000000001
H      50.641949999999994     49.387100000000004     50.168306000000001
H      44.914449999999995     48.111900000000006     49.642704000000002
H      49.858349999999994     49.599299999999999     47.263570000000001
H      48.248049999999999     50.499499999999998     47.257570000000001
H      46.919449999999998     45.878399999999999     50.787930000000003
H      48.811749999999996     49.296400000000006     50.355775000000001
H      49.565950000000001     45.500500000000002     51.118729999999999
H      51.085550000000005     47.032200000000003     50.163119000000009
