22

C      46.779149999999987     50.045449999999995     48.049649999999993
C      47.334449999999997     50.072050000000004     46.535249999999998
C      47.456749999999992     49.214050000000000     49.189949999999996
C      46.715349999999994     48.318849999999998     46.452950000000001
C      48.239749999999994     48.143450000000001     48.574849999999998
C      47.668950000000002     47.546050000000001     47.228049999999996
C      49.174050000000001     47.453550000000000     49.429249999999996
C      48.296049999999987     46.183350000000004     46.733550000000001
C      49.687349999999995     46.347050000000003     49.016050000000000
C      49.468749999999993     45.756050000000002     47.657449999999997
H      45.731549999999999     50.166550000000001     47.933250000000001
H      46.983849999999997     51.122450000000001     48.536649999999995
H      46.589549999999996     50.582449999999994     45.891449999999999
H      48.383349999999986     50.181950000000001     46.490849999999995
H      46.586749999999995     48.748050000000006     49.631349999999998
H      47.837949999999992     49.676649999999995     50.144750000000002
H      45.609749999999998     48.207750000000004     46.290250000000000
H      46.608549999999994     47.786450000000002     45.572749999999999
H      49.098149999999997     47.539349999999999     50.427250000000001
H      48.278649999999992     45.637549999999997     45.824249999999999
H      50.390250000000002     45.573750000000004     49.469750000000005
H      50.016249999999992     44.877549999999999     47.257350000000002
