22

C      46.576699999999995     48.976849999999992     45.972699999999989
C      46.531099999999995     49.349950000000000     47.398600000000002
C      47.700500000000005     47.599950000000000     45.956699999999998
C      49.350400000000008     48.855750000000000     47.365400000000008
C      48.524200000000008     47.706550000000000     47.207200000000000
C      47.625100000000003     48.577750000000002     48.201900000000009
C      49.188400000000001     46.471049999999998     47.741200000000006
C      48.394599999999997     48.407750000000000     49.470800000000011
C      49.629900000000006     46.344349999999999     49.103400000000008
C      49.170699999999997     47.313150000000000     49.978999999999999
H      45.574399999999997     48.821950000000001     45.542299999999997
H      46.995100000000008     49.926049999999989     45.703900000000004
H      46.410899999999998     50.474350000000001     47.461000000000013
H      45.533299999999997     48.974750000000000     47.726200000000006
H      47.040199999999999     46.766950000000001     45.898099999999999
H      48.174800000000005     47.666449999999998     44.979799999999997
H      49.972600000000000     48.961649999999999     48.069100000000006
H      49.841300000000004     49.177250000000001     46.450500000000005
H      49.142700000000005     45.525649999999999     47.132700000000000
H      48.084900000000005     48.765149999999998     50.536900000000017
H      50.466700000000003     45.620849999999997     49.562500000000000
H      49.526800000000009     47.287149999999997     51.020200000000003
