47

C      47.619849999999992     47.481999999999992     46.341199999999986
C      46.442850000000007     47.389200000000002     47.274899999999995
C      48.598250000000007     51.092900000000000     50.089099999999995
C      48.493449999999996     48.630099999999999     46.493099999999991
C      49.996350000000007     52.816000000000003     49.105600000000003
C      46.608750000000001     48.129700000000000     48.523199999999996
C      47.450350000000000     51.112099999999998     50.860899999999994
C      49.148849999999996     50.834599999999995     47.554300000000005
C      50.269549999999995     53.075999999999993     47.548200000000001
C      48.450450000000004     49.515699999999995     47.555000000000000
C      49.342250000000007     51.594800000000006     48.836400000000005
C      47.813249999999996     48.964900000000000     48.823599999999992
C      47.793350000000004     49.904899999999998     50.061500000000002
C      47.484750000000005     46.319200000000002     45.376500000000000
C      46.324449999999999     45.602800000000002     44.961599999999997
C      45.393150000000006     45.444699999999997     46.290699999999994
C      45.521550000000005     46.239599999999996     47.379799999999996
C      49.694550000000007     51.129199999999997     46.249599999999994
C      50.481049999999996     52.504499999999993     46.253999999999998
C      51.090450000000004     53.898600000000002     46.393899999999995
C      49.991050000000001     50.222999999999999     45.085400000000000
C      49.358550000000008     48.882199999999997     45.226499999999994
C      48.662250000000000     46.397399999999998     44.298899999999996
C      49.402550000000005     47.768699999999995     44.360399999999991
C      46.063150000000007     44.624800000000000     43.955199999999998
C      44.903750000000002     43.146099999999997     45.513500000000001
C      44.929749999999999     41.947200000000002     45.736100000000000
C      44.455349999999996     44.285699999999999     46.283200000000001
C      47.328249999999997     51.109999999999999     52.385200000000005
C      45.180050000000008     43.493600000000001     44.102100000000000
H      50.047350000000009     53.213899999999995     50.043600000000005
H      45.799149999999997     47.929400000000001     49.277499999999996
H      46.405249999999995     51.471299999999999     50.527600000000000
H      44.976349999999996     46.195200000000000     48.216999999999992
H      52.204250000000002     53.890199999999993     46.568599999999996
H      50.567250000000001     54.898200000000003     46.285000000000004
H      50.773650000000004     50.291899999999998     44.327499999999993
H      50.196150000000003     47.389299999999999     43.743900000000004
H      46.574349999999995     45.076299999999996     43.035000000000004
H      45.080449999999999     41.506799999999998     46.930900000000001
H      43.795749999999998     44.049100000000003     47.025699999999993
H      48.162750000000003     51.448999999999998     52.964999999999996
H      46.832350000000005     52.062600000000003     52.794899999999991
H      46.966850000000008     50.226699999999994     52.888299999999994
H      44.788049999999998     41.101799999999997     44.913900000000005
H      44.739149999999995     42.800800000000002     43.326900000000002
O      48.717650000000006     45.199799999999996     44.586800000000004
