54

C      47.361349999999987     47.815869999999990     46.452230000000000
C      49.159070000000000     49.412069999999993     46.057420000000008
C      49.556187000000001     51.422469999999997     49.358149999999995
C      49.335859000000006     51.294269999999990     50.842950000000002
C      46.610349999999990     46.892969999999998     47.360059999999990
C      49.845393999999999     50.494769999999995     46.821689999999990
C      47.860149999999997     50.016069999999992     47.760689999999997
C      48.076549999999990     48.989869999999989     46.775069999999999
C      49.001570699999995     50.864669999999997     48.109650000000002
C      47.507449999999999     47.266069999999992     45.101230000000001
C      48.915649999999992     47.485969999999988     44.601140000000001
C      49.353048000000008     46.460669999999986     43.476340000000008
C      49.772066000000002     48.535069999999997     44.938320000000004
C      50.906649999999999     52.139755999999998     49.165750000000003
C      51.337330000000001     52.273663999999997     50.538150000000002
C      50.298520000000003     51.958886999999997     51.568049999999999
C      46.075049999999997     45.584169999999993     47.330069999999992
C      45.910049999999991     45.178769999999993     45.808880000000002
C      46.661649999999987     46.041269999999990     44.565449999999998
C      51.200200000000002     50.871969999999997     46.355040000000002
C      51.481780000000001     50.211469999999984     45.135880000000000
C      50.957189999999997     49.193369999999994     44.308220000000006
C      45.385949999999987     46.614569999999993     48.012559999999993
C      44.129649999999991     47.132769999999987     47.207549999999998
C      46.581049999999998     47.522669999999998     43.990690000000001
C      46.492949999999986     44.350069999999995     48.171759999999992
C      48.114549999999987     49.815469999999998     52.492750000000001
H      46.761249999999997     50.204969999999996     48.376279999999994
H      48.667349999999992     45.802669999999985     43.139510000000001
H      51.446629999999992     52.273494999999997     48.291290000000004
H      52.274979999999992     52.726230000000008     50.786649999999995
H      50.093930000000007     52.051175999999998     52.674450000000007
H      45.004349999999995     45.376169999999995     45.424970000000002
H      46.065549999999995     44.137369999999997     45.753470000000007
H      47.343649999999990     45.491369999999996     43.936049999999994
H      51.938570000000006     51.750793000000002     46.796130000000005
H      46.957349999999998     50.755769999999991     50.797249999999991
H      52.548450000000010     50.539869999999986     44.626100000000008
H      51.489500000000000     48.792469999999987     43.389910000000000
H      43.451549999999990     46.380969999999998     47.091200000000001
H      45.327449999999992     46.767169999999986     49.222949999999997
H      44.490449999999989     47.611969999999992     46.358630000000005
H      43.819249999999990     48.054969999999990     47.946399999999997
H      49.955239999999996     46.961169999999989     42.519450000000006
H      47.140549999999998     47.828569999999992     42.903850000000006
H      46.334849999999996     48.310169999999992     44.576049999999995
H      47.501049999999999     44.593869999999988     48.773060000000001
H      45.873249999999992     44.308369999999989     49.014949999999999
H      46.671649999999993     43.273769999999992     47.587699999999998
H      49.159711000000001     49.439569999999996     52.399150000000006
H      47.494949999999996     48.884069999999987     52.038250000000005
H      47.794149999999995     50.280869999999986     53.480549999999994
H      50.082940000000001     45.465269999999997     43.638329999999996
N      48.010749999999994     50.632469999999991     51.196349999999995
