6

C      47.796849999999992     47.650749999999988     48.385649999999998
C      48.198450000000008     48.577949999999994     47.450350000000000
H      46.782849999999996     47.542149999999999     49.044549999999994
H      48.210150000000013     46.439450000000001     48.166650000000004
H      47.831250000000011     49.560549999999999     47.512050000000002
H      49.217150000000004     48.330049999999993     46.955450000000006
