22

C      49.573049999999995     49.566749999999992     47.950099999999999
C      48.480350000000001     50.543549999999996     47.330900000000007
C      48.893950000000004     48.792550000000006     49.223200000000006
C      47.432949999999991     49.628650000000007     46.971800000000002
C      47.960650000000001     47.572749999999999     48.559400000000011
C      47.248649999999998     48.176550000000006     47.498800000000003
C      47.933750000000003     46.243549999999999     48.814100000000010
C      46.224549999999994     47.531750000000002     46.797800000000009
C      46.917549999999991     45.444550000000007     48.106100000000005
C      46.146349999999998     46.076049999999995     47.047400000000010
H      50.630449999999996     49.806250000000006     47.955700000000007
H      49.401049999999998     48.775050000000007     47.202800000000011
H      47.916550000000001     51.136849999999995     48.146400000000014
H      48.808049999999994     51.435249999999996     46.828200000000010
H      48.050749999999994     49.004149999999996     50.067999999999998
H      49.908149999999992     48.496549999999999     49.641300000000001
H      47.289450000000002     49.555650000000000     45.932000000000002
H      46.443649999999991     50.062650000000005     47.313500000000005
H      48.582849999999993     45.810649999999995     49.578500000000005
H      45.705349999999996     48.116849999999999     46.095500000000001
H      46.629549999999995     44.564750000000004     48.563400000000001
H      45.369550000000004     45.603849999999994     46.419600000000003
