6

C      48.387699999999988     47.831749999999992     47.925899999999999
C      47.214900000000000     48.222949999999997     48.223000000000006
H      49.247500000000002     48.415350000000004     47.370399999999997
H      48.611499999999992     46.765349999999998     48.370200000000004
H      46.752499999999998     47.338949999999997     48.629600000000003
H      46.926899999999989     49.234650000000002     47.877500000000005
