12

C      47.058299999999988     48.950949999999999     48.747199999999992
C      46.800900000000006     46.996150000000000     50.255699999999997
C      49.761800000000001     48.574750000000009     46.164800000000000
C      48.989200000000004     48.590550000000007     47.360599999999998
C      47.807099999999998     49.300449999999998     47.590399999999995
H      47.541199999999996     46.112650000000002     50.358499999999999
H      46.143999999999998     49.656649999999999     48.688600000000001
H      45.656799999999997     46.877049999999997     50.772100000000002
H      49.359400000000001     47.955250000000007     48.072200000000002
H      47.264800000000001     49.887349999999998     46.768300000000004
N      47.196499999999993     47.885850000000005     49.574000000000005
O      50.343200000000003     48.837950000000006     45.227899999999998
