304

C      44.526949999999999     42.726519999999987     49.023999999999994
C      43.405250000000009     41.817519999999988     48.970500000000001
C      44.354250000000008     37.882719999999992     50.884799999999998
C      45.716349999999991     41.792619999999999     49.301499999999990
C      43.417450000000002     40.334019999999995     48.869199999999999
C      46.819350000000014     39.811819999999997     50.563899999999990
C      44.632250000000013     38.140619999999998     49.232900000000001
C      45.762050000000002     40.304719999999989     49.415300000000002
C      44.695150000000012     39.506219999999999     48.911999999999999
C      44.653450000000007     44.169519999999991     49.178599999999996
C      43.270250000000004     44.512519999999995     48.705799999999996
C      42.082150000000013     43.702919999999985     48.557600000000001
C      42.097450000000009     42.280619999999999     49.017400000000002
C      45.924449999999993     45.053619999999995     49.574300000000001
C      45.917450000000002     46.422419999999988     49.756000000000000
C      44.682850000000002     46.844619999999992     49.123699999999999
C      43.666250000000005     46.059819999999988     48.460799999999999
C      46.910350000000008     44.024519999999995     50.017499999999998
C      46.853550000000013     42.539919999999995     49.930499999999995
C      48.224449999999990     41.898419999999987     49.913300000000000
C      48.332950000000011     40.420519999999996     50.151499999999999
C      49.020150000000015     41.339119999999994     51.122799999999991
C      49.256150000000005     39.264219999999995     49.374299999999991
C      42.561450000000008     46.792019999999994     47.952100000000002
C      46.978649999999988     47.513219999999983     50.109499999999990
C      45.509050000000002     43.402819999999991     61.101800000000004
C      46.646550000000005     44.224019999999996     61.192299999999989
C      49.183949999999996     49.370419999999989     55.560800000000000
C      44.617049999999992     43.436319999999995     59.843200000000003
C      48.046650000000014     48.743519999999982     54.719899999999996
C      49.413350000000008     48.612619999999986     56.989699999999999
C      46.812250000000006     45.498019999999997     60.175900000000006
C      46.949149999999989     48.276019999999981     52.522399999999990
C      45.393949999999990     47.793419999999990     53.057999999999993
C      44.092750000000009     46.116720000000001     54.259099999999997
C      43.820450000000008     45.146119999999996     55.348099999999995
C      44.028550000000010     44.183019999999999     57.447199999999995
C      47.902750000000012     46.757619999999989     57.917099999999991
C      47.930850000000007     48.706019999999995     53.390299999999996
C      45.219650000000001     46.935119999999998     54.371200000000002
C      44.880050000000011     44.171319999999994     58.667799999999993
C      48.271450000000016     47.666519999999991     56.847299999999990
C      44.588749999999990     45.241319999999980     56.505199999999995
C      46.119749999999996     45.059819999999988     58.942200000000000
C      46.657150000000016     45.888019999999997     57.853499999999990
C      47.560549999999992     47.581619999999994     55.623300000000000
C      45.941350000000000     45.913219999999988     56.450099999999999
C      46.292350000000013     46.855019999999996     55.419499999999999
C      48.236650000000012     45.943119999999993     60.253199999999993
C      48.712449999999990     46.805419999999998     59.171899999999994
C      49.769349999999989     47.884719999999987     59.202900000000000
C      50.171150000000011     48.688319999999983     58.087999999999994
C      45.154250000000005     42.316419999999994     62.122899999999987
C      45.853649999999988     42.451619999999991     63.410900000000005
C      46.915849999999992     43.368420000000000     63.518400000000000
C      47.311250000000015     44.165519999999994     62.454599999999999
C      48.266849999999991     45.108619999999988     62.833599999999990
C      49.142450000000011     45.640319999999988     61.445599999999999
C      46.210749999999990     46.725019999999994     60.846899999999991
C      43.696750000000009     42.396119999999996     59.988399999999999
C      43.817950000000010     42.158619999999999     61.486299999999986
C      42.894350000000003     43.416019999999989     56.870300000000000
C      47.839550000000003     49.845819999999989     52.604599999999991
C      47.392750000000007     47.135319999999993     51.462299999999999
C      52.159250000000014     41.790920000000000     46.348100000000002
C      53.868550000000013     40.585419999999999     47.986899999999999
C      53.568550000000002     41.187619999999995     46.511499999999998
C      54.157749999999993     41.484119999999990     49.084899999999998
C      55.042850000000001     48.173919999999995     52.772499999999994
C      55.077249999999992     46.659519999999993     53.024899999999995
C      54.843549999999993     49.630219999999994     50.539000000000001
C      54.252849999999995     49.568119999999986     49.122699999999995
C      54.897850000000005     44.193919999999991     52.145600000000002
C      55.034849999999992     43.177119999999988     51.243099999999998
C      54.694449999999989     44.828519999999997     47.106000000000002
C      54.669950000000014     47.227419999999995     47.598999999999997
C      54.633450000000011     48.586819999999982     51.446899999999999
C      54.949450000000013     45.701119999999982     51.991399999999999
C      54.840150000000008     43.392820000000000     47.371600000000001
C      54.473749999999995     48.042319999999982     48.770699999999998
C      54.523450000000011     45.798419999999993     48.182800000000000
C      54.421550000000011     42.967919999999992     48.751100000000001
C      54.890850000000015     43.747019999999992     49.914900000000003
C      54.804750000000013     47.581519999999990     50.188499999999991
C      55.012350000000012     45.205219999999997     49.387899999999995
C      55.005050000000011     46.258619999999986     50.483299999999993
C      54.377549999999999     40.897019999999998     50.340799999999994
C      54.727849999999989     41.856719999999996     51.453800000000001
C      51.379050000000007     41.671419999999998     45.135899999999999
C      51.657050000000012     43.053819999999988     45.455299999999994
C      53.847450000000009     39.169319999999999     48.348999999999997
C      53.747550000000004     38.661919999999995     49.667099999999991
C      54.075950000000006     39.632419999999996     50.857099999999996
C      55.005449999999996     42.114719999999991     46.468899999999998
C      55.736550000000008     42.372419999999991     44.982999999999997
C      51.176650000000009     40.717119999999994     46.273600000000002
C      49.956650000000010     39.927219999999991     46.713799999999992
C      57.120150000000010     42.672419999999988     45.217199999999998
C      55.215949999999992     50.966419999999999     51.267600000000002
C      50.375649999999993     39.795719999999989     48.384099999999997
C      51.420850000000016     44.599319999999985     45.443599999999989
C      53.058549999999997     38.013619999999989     48.471299999999999
C      46.541850000000011     48.429719999999989     46.087600000000002
C      53.030850000000015     52.302086820000000     45.602499999999999
C      45.874449999999996     49.736120000000000     45.940600000000003
C      52.195349999999991     53.551340000000003     45.943500000000000
C      48.048749999999998     48.348919999999993     46.314300000000003
C      52.492249999999999     50.928419999999988     45.809399999999997
C      45.892850000000010     52.317161200000001     45.894199999999998
C      50.071950000000015     54.808219999999999     46.613300000000002
C      46.481749999999991     53.486069999999998     46.285899999999998
C      48.623350000000002     54.648710000000008     46.659999999999997
C      50.246650000000002     49.396419999999992     46.131799999999998
C      46.636750000000006     51.028519999999993     46.040300000000002
C      50.764250000000004     53.450020000000009     46.360399999999998
C      47.901650000000004     53.364809999999991     46.547899999999998
C      48.845949999999988     49.624420000000001     46.280000000000001
C      50.956450000000004     50.671920000000000     46.107199999999999
C      48.082450000000009     50.881819999999983     46.031300000000002
C      50.239150000000009     52.049619999999990     46.290799999999997
C      48.793549999999996     52.174319999999994     46.126100000000001
C      45.803950000000000     47.217119999999994     45.673699999999997
C      44.311050000000009     47.269120000000001     45.531799999999997
C      43.602050000000006     48.511719999999997     45.503900000000002
C      44.380750000000006     49.659219999999983     45.819000000000003
C      43.692050000000009     50.831419999999994     45.572600000000001
C      44.316150000000007     52.304529500000001     45.671599999999998
C      54.574850000000012     52.641396000000000     45.751700000000000
C      55.443750000000009     51.545519999999996     45.506099999999996
C      54.594650000000001     54.081600000000009     45.965000000000003
C      53.194449999999989     54.510990000000007     46.181500000000000
C      46.780550000000005     46.041819999999994     45.919499999999999
C      45.803350000000009     44.807119999999998     45.959400000000002
C      44.466550000000012     44.956419999999987     45.789299999999997
C      43.625150000000005     45.985219999999991     45.442999999999998
C      48.175550000000015     45.811719999999987     46.045299999999997
C      48.829650000000001     47.053719999999991     46.349099999999993
C      50.313050000000004     46.909819999999989     46.735599999999991
C      51.006450000000001     48.017719999999997     45.780900000000003
C      42.976650000000006     53.320560000000000     46.397300000000001
C      50.756850000000014     45.550919999999984     46.757700000000000
C      50.925050000000013     55.240320000000011     37.357199999999999
C      51.074349999999995     56.447769999999991     38.219200000000001
C      50.599750000000014     52.625606000000005     42.196399999999997
C      51.331249999999997     53.938220000000001     38.035100000000000
C      51.733850000000004     56.210819999999998     39.495600000000003
C      51.748150000000010     52.639734000000004     43.105699999999999
C      52.055250000000015     54.976460000000003     41.700099999999992
C      51.341850000000008     53.874730000000000     42.395200000000003
C      51.745450000000005     54.968389999999999     40.199300000000001
C      50.286850000000015     55.446289999999991     35.934600000000003
C      50.243750000000006     56.833990000000000     35.603400000000001
C      49.977350000000015     58.003840000000004     36.500599999999999
C      50.610649999999993     57.824850000000005     37.743000000000002
C      50.484749999999991     54.356929999999998     34.881999999999991
C      50.580350000000010     54.719110000000001     33.559299999999993
C      50.238249999999994     56.046180000000007     33.269399999999997
C      49.981050000000010     57.156640000000010     34.330599999999997
C      50.922749999999994     53.119852000000009     35.641700000000000
C      51.251250000000013     53.811090000000007     39.488500000000002
C      51.209249999999997     52.951041000000004     36.903100000000002
C      52.638950000000008     51.909419999999990     44.305500000000002
C      49.312349999999995     51.945719999999994     41.997599999999998
C      51.038050000000013     53.516040000000004     32.554200000000002
C      41.070050000000009     52.072319999999984     43.570399999999999
C      40.192950000000010     54.369759999999999     44.923299999999998
C      40.512550000000005     52.849232000000001     44.821599999999997
C      41.421550000000011     53.636490000000009     44.197899999999990
C      40.847250000000003     52.016919999999999     46.083399999999997
C      42.891850000000005     53.636260000000000     44.019599999999997
C      41.798450000000003     52.496353999999997     46.850499999999997
C      43.570850000000007     53.309800000000010     45.084299999999999
C      40.597150000000013     43.163019999999989     56.009399999999992
C      39.189450000000008     43.150419999999997     58.485100000000003
C      39.417250000000010     42.541719999999998     56.884999999999991
C      39.655450000000002     44.581319999999984     58.622699999999995
C      40.586550000000003     44.690119999999993     56.114300000000000
C      40.357550000000003     45.226619999999997     57.417599999999993
C      41.007450000000006     45.389519999999990     54.876599999999996
C      40.429350000000014     46.717119999999987     57.412300000000002
C      41.035150000000016     46.688620000000000     54.827999999999996
C      40.872750000000011     47.317419999999998     56.175799999999995
H      44.854649999999992     38.752219999999994     51.420799999999993
H      42.475350000000006     39.713619999999992     48.684800000000003
H      43.533850000000015     37.709119999999999     48.777200000000001
H      45.210549999999998     37.371719999999996     48.893500000000003
H      41.147350000000003     43.804619999999993     48.112000000000002
H      41.038750000000007     41.773219999999995     49.033499999999997
H      44.764250000000004     47.927119999999988     48.903100000000002
H      47.795350000000013     44.722519999999982     50.318500000000000
H      48.722550000000012     42.145319999999998     48.957599999999999
H      46.683449999999993     39.741619999999998     51.723899999999993
H      47.059649999999991     38.694219999999987     50.254099999999994
H      48.618350000000007     41.841919999999988     51.889399999999995
H      50.088049999999996     41.324819999999988     51.383299999999991
H      49.686049999999994     38.626619999999988     49.988000000000000
H      48.706149999999994     38.370919999999998     48.867800000000003
H      42.628650000000007     47.875319999999981     47.494699999999995
H      41.748150000000010     46.274919999999995     47.490299999999998
H      47.688550000000006     47.745619999999981     49.283099999999990
H      46.401550000000015     48.450719999999983     50.273799999999994
H      50.181849999999997     49.318219999999997     54.902900000000002
H      49.377550000000014     50.504919999999998     55.504699999999993
H      44.673250000000010     48.594919999999988     52.908999999999992
H      44.989950000000007     47.209419999999994     51.998399999999990
H      43.429650000000009     45.946919999999992     53.363699999999994
H      42.906650000000013     44.717619999999989     55.069000000000003
H      50.506749999999997     48.088219999999993     59.990699999999997
H      51.040150000000011     49.290019999999998     58.533599999999993
H      45.501650000000012     41.609819999999999     64.000199999999992
H      47.523349999999994     43.727119999999999     64.379199999999997
H      48.879750000000001     44.659619999999983     63.614799999999995
H      47.712249999999997     46.084919999999997     63.186100000000003
H      49.831249999999997     46.525319999999994     61.743599999999994
H      50.016049999999993     45.068519999999992     60.936399999999992
H      45.076350000000005     46.936019999999999     60.806899999999999
H      46.235349999999997     46.423819999999992     61.957100000000004
H      43.122750000000011     41.574320000000000     61.818599999999989
H      42.902050000000003     41.969619999999992     59.320899999999995
H      48.018650000000008     50.957919999999987     52.777299999999997
H      48.537749999999988     49.709619999999994     51.609999999999999
H      48.389550000000014     46.897419999999997     51.443999999999996
H      46.622850000000014     46.376419999999996     51.805899999999994
H      55.458749999999995     48.923919999999995     53.422699999999992
H      55.495949999999993     46.441819999999993     54.072899999999997
H      53.871249999999989     50.430819999999997     48.382199999999997
H      54.323950000000011     43.847420000000000     52.946199999999990
H      54.508349999999993     45.170220000000000     46.053300000000000
H      54.657850000000010     41.597719999999995     52.444699999999997
H      54.354050000000015     39.269219999999990     51.791399999999996
H      55.471950000000007     41.287920000000000     47.065500000000000
H      55.728249999999989     41.621219999999994     44.302700000000002
H      54.997549999999990     43.021619999999999     44.270600000000002
H      53.587050000000005     40.485019999999992     45.699299999999994
H      43.309450000000012     38.537920000000000     51.395600000000002
H      48.908450000000002     40.277220000000000     46.421199999999999
H      50.056150000000002     38.869919999999993     46.295699999999997
H      57.330450000000013     43.546119999999981     44.478299999999997
H      57.987249999999989     41.981619999999992     45.109899999999996
H      57.084449999999990     43.471119999999999     46.000300000000003
H      55.563949999999991     51.625119999999995     50.470799999999997
H      55.765549999999990     50.827219999999997     51.983299999999993
H      54.459449999999990     51.205819999999989     52.031700000000001
H      51.052349999999990     39.008619999999993     47.861999999999995
H      51.091350000000006     40.468319999999991     48.617399999999996
H      50.721850000000003     44.511919999999982     44.485599999999991
H      52.362950000000012     44.996019999999980     45.139299999999992
H      52.604150000000004     36.889919999999989     48.454599999999999
H      53.047550000000015     50.105419999999995     45.834499999999998
H      50.573549999999997     55.744289999999992     46.618899999999996
H      45.931450000000012     54.465670000000003     46.458599999999997
H      48.125649999999993     55.583590000000001     46.502800000000001
H      42.478150000000014     48.470819999999989     45.332099999999997
H      42.583450000000013     51.031019999999991     45.262300000000003
H      55.367950000000008     54.744390000000003     46.143299999999996
H      53.071850000000012     55.571309999999997     46.368200000000002
H      46.273949999999999     43.756719999999980     46.161499999999990
H      43.871650000000002     43.890119999999996     45.750399999999999
H      42.464550000000003     45.983019999999996     45.345399999999998
H      48.562750000000008     44.720819999999989     46.117399999999996
H      50.479749999999996     47.329419999999999     47.799999999999997
H      52.011849999999995     47.803619999999988     45.687199999999997
H      51.314150000000012     45.305419999999998     47.593100000000000
H      50.024450000000002     44.855619999999988     47.237899999999996
H      52.091150000000013     56.835660000000004     40.456999999999994
H      52.690950000000015     55.848959999999998     42.035800000000002
H      49.865350000000007     59.110080000000011     35.980699999999999
H      51.047149999999988     58.541119999999992     38.363100000000003
H      50.371450000000010     56.486909999999995     32.276999999999994
H      49.777450000000002     58.167540000000002     34.022799999999989
H      51.007750000000001     52.261619999999994     35.065399999999997
H      51.595849999999999     52.124519999999990     37.227099999999993
H      51.114350000000002     52.935274000000007     39.774500000000003
H      53.313849999999988     51.277319999999982     43.715000000000003
H      52.057750000000013     53.458680000000001     33.149799999999999
H      51.349450000000004     54.379670000000004     32.019300000000001
H      50.345850000000013     53.443339999999999     31.620799999999996
H      42.761750000000006     55.636700000000005     46.866300000000003
H      50.809649999999991     47.814920000000001     44.666300000000000
H      40.195150000000012     51.904619999999994     42.860599999999998
H      41.306750000000008     51.184219999999996     44.207700000000003
H      39.774550000000005     55.009219999999999     44.040300000000002
H      40.227550000000008     55.369509999999991     45.293100000000003
H      39.868150000000014     51.633519999999990     46.355499999999992
H      43.411650000000009     54.120970000000000     43.192300000000003
H      41.747150000000005     52.309515000000005     47.908099999999990
H      46.883949999999999     47.721219999999981     60.757099999999994
H      43.667950000000005     37.027220000000000     51.186700000000002
H      40.602050000000006     42.687119999999993     54.995499999999993
H      39.134250000000009     42.575819999999993     59.357100000000003
H      38.012750000000011     43.507719999999985     58.241199999999992
H      39.280150000000006     41.517820000000000     56.638499999999993
H      38.516550000000009     42.646319999999989     56.296399999999991
H      40.382650000000012     44.583320000000001     59.422600000000003
H      38.735850000000013     44.925719999999991     59.155000000000001
H      41.135550000000009     44.780419999999985     54.029899999999998
H      39.671550000000011     46.986819999999987     58.246099999999998
H      41.451350000000005     47.149919999999987     53.986400000000003
H      40.971250000000012     48.360119999999995     56.085999999999999
O      42.068350000000009     42.630719999999997     56.446099999999994
O      54.769250000000000     47.446619999999989     46.356799999999993
O      43.261750000000006     54.813500000000005     46.780299999999997
O      55.772049999999993     50.622119999999995     44.970700000000001
O      48.284150000000011     51.734719999999989     41.657100000000000
