75

C      47.736299999999993     45.046700000000001     55.265599999999985
C      48.471699999999998     46.022799999999997     54.456499999999991
C      47.394300000000001     47.072499999999998     53.771500000000003
C      46.145600000000002     45.269200000000005     54.566499999999991
C      44.745300000000000     47.340200000000003     53.722499999999997
C      45.862000000000002     46.402500000000011     53.650099999999995
C      44.129599999999996     48.236300000000007     52.751099999999994
C      46.535499999999999     46.546799999999998     52.603700000000003
C      44.805000000000000     48.334499999999998     51.452299999999994
C      45.928200000000004     47.277300000000004     51.307800000000000
C      44.413699999999999     49.127600000000008     50.243700000000004
C      45.145200000000003     49.347799999999999     48.858400000000003
C      48.401799999999994     45.972500000000004     43.183399999999992
C      49.873400000000004     45.511500000000005     43.476100000000002
C      48.921400000000006     49.702599999999997     46.707499999999996
C      50.258700000000005     49.173300000000005     46.709000000000003
C      47.770200000000003     47.162399999999998     43.900599999999997
C      50.640599999999999     46.235900000000008     44.471699999999998
C      48.034399999999991     48.774000000000008     45.828900000000004
C      50.981400000000008     48.215100000000000     46.038100000000000
C      48.699500000000000     47.761500000000005     45.030599999999993
C      50.007000000000005     47.283600000000000     45.380600000000001
C      47.506100000000004     45.671300000000009     42.245099999999994
C      48.097900000000003     44.634300000000003     41.392099999999999
C      49.391000000000005     43.941300000000005     41.258799999999994
C      50.247900000000001     44.656100000000002     42.371499999999997
C      48.412999999999997     50.754100000000001     47.670400000000001
C      49.431899999999999     51.576700000000010     48.338499999999996
C      50.735100000000003     50.938800000000008     48.402799999999999
C      51.236900000000006     49.741199999999999     47.633299999999991
C      46.005000000000003     45.741000000000007     42.254400000000004
C      45.771400000000000     44.891300000000008     41.059600000000003
C      46.890799999999999     44.182700000000004     40.598699999999994
C      45.351500000000001     46.832500000000003     42.911199999999994
C      46.422699999999999     47.495400000000011     43.689399999999992
C      45.830300000000001     48.671500000000002     44.504599999999996
C      46.562800000000003     49.115500000000004     45.614999999999995
C      46.920600000000000     50.911000000000008     47.827500000000001
C      46.313699999999997     50.388700000000007     46.435000000000002
C      51.516700000000000     44.062100000000008     42.600799999999992
C      46.440899999999999     51.657299999999999     45.497799999999998
C      46.015299999999996     50.613100000000010     49.072900000000004
H      47.940399999999997     44.040500000000002     55.359200000000001
H      47.482199999999999     45.388900000000000     56.392600000000002
H      49.245899999999999     46.656600000000005     54.682199999999995
H      49.155900000000003     45.525900000000000     53.676199999999994
H      45.027799999999999     47.190400000000004     54.833399999999997
H      48.253200000000000     47.888200000000005     53.524199999999993
H      45.896799999999999     44.222700000000010     54.421999999999997
H      45.319699999999997     45.292000000000009     55.368200000000002
H      43.574600000000004     49.227100000000000     53.047899999999998
H      47.305599999999998     45.783200000000001     52.320300000000003
H      46.721800000000002     47.548800000000007     50.595600000000005
H      45.100700000000003     46.371500000000005     50.741100000000003
H      45.792400000000001     48.506300000000003     48.782899999999998
H      44.432299999999998     49.285100000000007     48.060699999999997
H      43.349699999999999     49.664200000000001     50.077199999999991
H      51.850600000000000     46.115000000000002     44.668999999999997
H      52.029799999999994     48.070300000000010     45.975899999999996
H      50.078600000000009     43.660299999999999     40.421399999999991
H      49.153399999999998     52.556699999999999     48.861999999999995
H      51.367500000000000     51.574199999999998     49.200599999999994
H      52.348100000000002     49.309600000000010     47.658100000000005
H      44.634799999999998     44.709200000000003     40.766599999999997
H      47.074199999999998     43.443300000000001     39.607399999999998
H      44.338499999999996     47.168799999999997     42.674700000000001
H      44.975999999999999     49.336400000000005     44.101299999999995
H      46.636899999999997     52.110400000000006     47.846000000000004
H      45.167900000000003     50.178400000000003     46.605099999999993
H      45.739699999999999     52.507200000000005     45.882999999999996
H      47.540199999999999     51.744800000000005     45.202100000000002
H      45.967399999999998     51.360700000000001     44.506500000000003
H      45.311199999999999     51.317200000000007     49.311199999999999
H      46.727300000000000     50.211199999999998     49.784700000000001
O      52.650300000000001     43.971800000000009     43.064300000000003
