36

C      49.193049999999992     46.843899999999998     44.514549999999993
C      45.409149999999997     45.994600000000005     52.617949999999993
C      48.830950000000001     48.478999999999999     48.277550000000005
C      46.158850000000001     47.217900000000000     52.675250000000005
C      48.653649999999999     48.039699999999996     47.113249999999994
C      45.556150000000002     45.029900000000005     51.550049999999999
C      48.706950000000006     48.256400000000014     49.631249999999994
C      47.252650000000003     47.528000000000006     51.720349999999996
C      47.340649999999997     44.718200000000003     48.204549999999998
C      46.585450000000009     44.535200000000003     49.422049999999999
C      47.787850000000006     46.196200000000005     47.991550000000004
C      46.563450000000003     45.465300000000006     50.571150000000003
C      48.367249999999999     46.870999999999995     49.307050000000004
C      47.501550000000009     46.549100000000003     50.536550000000005
C      49.134050000000002     48.970000000000006     50.795749999999998
C      48.184550000000002     48.705100000000002     51.859549999999999
C      48.293750000000003     46.507900000000006     46.744550000000004
C      48.529049999999998     45.966400000000000     45.376750000000001
C      48.586750000000009     45.362500000000004     42.726450000000000
C      49.702050000000000     50.319200000000009     50.733850000000004
C      50.489750000000001     51.928800000000010     52.219849999999994
C      49.141450000000006     46.542900000000003     43.065550000000002
H      49.732749999999996     47.278700000000001     42.431749999999994
H      44.436549999999997     46.008100000000006     53.096750000000000
H      45.926249999999996     47.821100000000001     53.568250000000006
H      44.937650000000005     44.221400000000003     51.534149999999997
H      47.596450000000004     44.149100000000004     47.396649999999994
H      45.771749999999997     43.929000000000002     49.454149999999998
H      47.935150000000007     49.256600000000006     52.783950000000004
H      49.384550000000004     47.714600000000004     45.031350000000003
H      48.125550000000004     45.100400000000000     44.907749999999993
H      49.507649999999998     50.479600000000005     49.611249999999998
H      49.188550000000006     48.899800000000013     46.389250000000004
O      49.429050000000004     51.548600000000008     51.705749999999995
O      51.563450000000003     52.070999999999998     52.692250000000001
O      47.897649999999999     44.481900000000003     42.847350000000006
