5

C      47.318199999999990     48.659799999999997     48.068249999999992
H      49.389400000000002     48.635800000000003     48.320650000000001
H      48.618600000000001     46.950699999999998     48.688450000000003
N      48.504300000000001     48.114099999999993     48.680449999999993
O      46.610599999999998     49.049300000000002     47.311549999999997
