36

C      44.265999999999991     45.660499999999992     49.359049999999996
C      44.062800000000010     46.236400000000003     47.840549999999993
C      45.409599999999998     47.900800000000004     49.162850000000006
C      45.885400000000004     49.051500000000004     50.203350000000000
C      50.542299999999997     49.434899999999999     48.741550000000004
C      50.143400000000000     48.492400000000004     47.556049999999999
C      46.243400000000008     47.847999999999999     48.018649999999994
C      47.274100000000004     49.263600000000004     50.509349999999998
C      49.588500000000010     49.488700000000009     49.775349999999989
C      48.842399999999998     47.981200000000001     47.335549999999998
C      48.262200000000007     48.855800000000002     49.457750000000004
C      47.670000000000002     48.221699999999998     48.286850000000001
C      44.176100000000005     47.320599999999999     48.919150000000002
C      43.153000000000006     48.086200000000005     49.448849999999993
C      43.428400000000011     49.198599999999999     50.267650000000003
C      44.695900000000009     49.687700000000007     50.782049999999998
C      51.817400000000006     50.269400000000005     48.562849999999997
C      52.582500000000010     50.012100000000004     47.337149999999994
C      52.299300000000002     48.886500000000012     46.404550000000000
C      51.132000000000005     48.195800000000006     46.416150000000002
C      53.219000000000008     48.928500000000000     45.222650000000002
H      43.156500000000008     46.109600000000000     47.366150000000005
H      46.173000000000002     47.451500000000003     47.094149999999999
H      47.651400000000010     49.745600000000010     51.383449999999996
H      49.633800000000008     50.024599999999992     50.683049999999994
H      48.570400000000006     47.478900000000010     46.479249999999993
H      42.299300000000002     47.358000000000004     49.525049999999993
H      42.698700000000002     49.769900000000007     50.995349999999988
H      44.642499999999998     50.471100000000007     51.587850000000003
H      51.735200000000006     51.293900000000001     48.899850000000001
H      53.017200000000003     50.931100000000001     47.052949999999996
H      50.929900000000004     47.237700000000004     45.892449999999997
H      44.879500000000007     46.003799999999998     47.103650000000002
H      53.700699999999998     49.792500000000004     45.039050000000003
O      44.694600000000008     44.706099999999999     49.919249999999991
O      53.240899999999996     47.989000000000004     44.412149999999997
