6

C      48.380149999999993     47.402599999999993     47.840599999999995
C      47.897149999999996     48.692899999999995     48.037499999999994
H      48.512450000000001     46.813699999999997     46.837400000000002
H      48.491749999999996     46.795500000000004     48.802699999999987
H      47.487549999999999     49.204499999999996     49.162599999999998
H      47.766849999999991     49.202500000000001     47.137400000000000
