22

C      46.753849999999993     48.927199999999992     46.123849999999990
C      45.850650000000002     48.444800000000001     47.353750000000005
C      48.063850000000002     47.897900000000007     45.782250000000005
C      46.509650000000001     47.201300000000003     48.094750000000005
C      48.787649999999999     48.128100000000003     47.036050000000003
C      48.021249999999995     47.685199999999995     48.181650000000005
C      50.065249999999999     48.680899999999994     47.419849999999997
C      48.437849999999997     47.635400000000004     49.608350000000002
C      50.347149999999999     48.959199999999996     48.774950000000004
C      49.753050000000002     48.264399999999995     49.918149999999997
H      46.905450000000002     49.834400000000002     46.275750000000002
H      46.184550000000002     49.192800000000005     45.103250000000003
H      44.790949999999995     48.308000000000007     47.050150000000002
H      45.515749999999997     49.235399999999998     48.039450000000002
H      48.761650000000003     48.088499999999996     44.998249999999999
H      47.848150000000004     46.748000000000005     46.054450000000003
H      46.388449999999999     46.165599999999998     47.610150000000004
H      45.841149999999999     46.963099999999997     48.917550000000006
H      50.781350000000003     49.000500000000002     46.703749999999999
H      47.858950000000000     47.072400000000002     50.376249999999999
H      51.209050000000005     49.712500000000006     48.998350000000002
H      50.350850000000008     48.373300000000000     51.001750000000001
