22

C      50.151799999999994     48.240949999999998     48.382089999999991
C      49.791900000000005     47.377949999999998     49.714143000000014
C      48.512599999999999     50.000150000000005     48.432490000000008
C      48.307200000000002     46.659649999999999     49.617853000000004
C      48.461300000000001     48.565749999999994     48.042890000000007
C      47.646200000000000     47.452849999999998     48.437490000000004
C      47.976000000000006     49.390150000000006     46.840589999999999
C      46.517500000000005     47.009850000000000     47.631090000000007
C      46.678599999999996     48.979849999999999     46.110689999999998
C      46.077000000000005     47.859250000000003     46.590790000000005
H      50.756599999999999     47.435749999999999     47.759490000000007
H      50.691400000000009     49.129549999999995     48.540290000000006
H      50.035100000000007     47.585650000000001     50.727910000000001
H      50.116900000000008     46.226950000000002     49.589862000000018
H      49.439299999999996     50.400649999999999     48.363990000000008
H      48.014800000000001     50.167050000000003     49.502602000000010
H      48.608600000000003     45.599350000000001     49.062890000000003
H      47.949500000000008     46.956649999999996     50.549720000000015
H      48.664000000000009     49.448650000000001     46.120190000000001
H      45.977399999999996     46.183250000000001     47.878189999999996
H      46.399000000000008     49.490350000000007     45.272089999999999
H      45.243400000000001     47.620649999999998     46.064389999999996
