22

C      48.627499999999998     49.295449999999988     46.225099999999998
C      49.943599999999996     48.828250000000011     47.099299999999999
C      47.404400000000003     48.402650000000008     46.399599999999992
C      49.519199999999991     48.937650000000005     48.635499999999993
C      47.077899999999993     47.814250000000001     47.719899999999996
C      48.163699999999999     48.040850000000006     48.759399999999999
C      45.917600000000000     47.076350000000005     47.828800000000001
C      48.049399999999999     47.290150000000011     49.918700000000001
C      45.875300000000003     46.393050000000002     49.105599999999995
C      46.985499999999995     46.380750000000006     50.055499999999995
H      48.840399999999995     49.674150000000012     45.090400000000002
H      48.297699999999999     50.156250000000000     46.590999999999994
H      50.954400000000000     49.299850000000006     47.160399999999996
H      50.235599999999998     47.806850000000011     46.945300000000003
H      47.716999999999992     47.627750000000006     45.579700000000003
H      46.494300000000003     48.956250000000011     46.004300000000001
H      50.216100000000004     48.705250000000007     49.441400000000002
H      49.383999999999993     49.947350000000000     48.894899999999993
H      45.045600000000000     47.020949999999999     46.901799999999994
H      48.774799999999992     47.624549999999999     50.636699999999990
H      45.046199999999999     45.843750000000000     49.478700000000003
H      47.070100000000004     45.900149999999996     50.909599999999998
