21

C      48.561799999999991     46.293949999999995     48.886649999999996
C      47.261000000000003     46.781050000000000     49.899850000000001
C      49.315300000000001     48.437549999999995     47.837649999999996
C      47.454900000000002     48.403650000000006     49.482450000000000
C      48.640800000000006     47.218749999999993     47.653649999999999
C      47.959000000000003     48.505949999999999     48.071849999999998
C      47.862500000000004     46.629750000000001     46.706149999999994
C      47.251900000000006     49.512850000000000     47.160349999999994
C      46.985900000000001     47.510649999999998     45.889049999999997
C      46.759500000000003     48.872949999999996     46.106949999999998
H      49.579100000000004     46.432650000000002     49.558149999999998
H      48.508299999999998     45.230150000000002     48.644649999999999
H      46.405000000000001     46.371950000000005     49.457949999999997
H      47.312600000000003     46.408349999999992     50.996949999999998
H      49.870399999999997     49.065050000000006     48.451949999999997
H      48.102100000000000     48.601250000000000     50.255449999999996
H      46.268400000000000     48.978749999999998     49.582549999999998
H      47.693800000000003     45.592050000000000     46.318449999999999
H      47.038000000000004     50.769849999999998     47.470950000000002
H      46.588400000000000     47.079749999999997     45.003050000000002
H      46.129600000000003     49.346049999999998     45.319749999999999
