5

C      47.990449999999996     48.055549999999997     48.110549999999996
H      48.519050000000007     47.155650000000001     48.651150000000001
H      47.471750000000000     47.769650000000006     47.064650000000000
H      47.224450000000004     48.183150000000005     48.935350000000000
H      48.775549999999996     48.844349999999999     48.134950000000003
