21

C      47.786399999999993     47.525849999999991     49.800349999999995
C      46.824300000000001     48.892949999999999     49.816249999999997
C      49.302199999999999     47.587149999999994     50.473250000000007
C      47.676299999999998     49.941949999999991     48.863349999999997
C      49.008400000000002     47.578749999999985     48.938450000000003
C      48.592700000000008     48.817849999999993     48.176150000000007
C      49.221499999999999     46.332949999999997     48.111649999999997
C      48.410499999999999     48.734749999999991     46.726849999999999
C      49.180300000000003     46.348550000000003     46.732849999999999
C      48.588999999999999     47.541049999999998     46.009249999999994
H      47.302999999999997     46.617850000000004     49.917249999999996
H      46.303100000000001     49.314549999999997     50.733649999999997
H      45.948999999999998     48.661249999999995     49.100549999999998
H      49.864200000000011     46.687650000000005     50.908050000000003
H      50.051000000000002     48.217849999999999     50.950649999999996
H      48.244799999999998     50.714050000000000     49.426050000000004
H      47.137500000000003     50.731049999999996     48.310950000000005
H      49.268000000000001     45.268950000000004     48.698549999999997
H      48.326700000000002     49.727249999999998     46.251350000000002
H      49.312199999999990     45.316149999999993     46.409250000000000
H      48.901499999999999     47.541950000000000     45.049350000000004
