5

C      47.867249999999991     47.921549999999996     48.202199999999991
H      48.073850000000007     48.089950000000009     47.171999999999997
H      47.652150000000006     47.057250000000003     48.828000000000003
H      48.964449999999999     48.275050000000000     48.202300000000008
H      47.035550000000001     48.942749999999997     48.059500000000000
