44

C      48.610149999999997     46.208589999999994     48.395149999999987
C      49.733550000000008     46.712289999999996     49.445849999999993
C      48.206949999999999     51.348430000000008     47.107549999999989
C      48.401150000000001     51.761970000000005     48.520550000000000
C      48.044449999999998     47.430875000000007     47.859549999999999
C      49.699849999999998     48.091730000000013     49.985450000000000
C      47.584350000000001     49.876140000000007     47.084249999999997
C      49.256349999999998     50.739130000000003     49.402950000000004
C      48.270049999999998     48.894630000000006     47.986249999999998
C      49.128350000000005     49.193140000000014     49.158950000000004
C      48.577550000000002     44.770389999999992     47.951149999999998
C      49.735150000000004     43.898190000000000     48.228149999999999
C      50.686650000000000     44.316990000000004     49.345849999999999
C      50.847950000000004     45.702190000000002     49.705349999999996
C      48.130050000000004     52.344470000000015     46.131949999999989
C      49.198650000000001     53.892759999999996     47.519549999999995
C      49.258550000000000     52.959530000000001     48.664650000000009
C      47.256149999999998     44.449190000000002     47.377650000000003
C      47.060150000000000     43.083690000000004     46.966949999999997
C      48.341650000000001     42.281989999999993     47.099350000000001
C      49.578949999999999     42.438490000000002     47.889349999999993
C      46.381250000000001     45.493889999999993     46.958950000000002
C      46.908450000000002     46.915883000000008     46.854550000000003
C      46.161450000000002     47.764218000000007     46.056749999999994
C      46.533349999999999     49.205380000000005     46.335849999999994
C      44.994650000000000     45.199489999999997     46.561349999999990
C      47.627650000000003     51.382560000000005     49.672750000000008
H      50.163150000000002     48.308730000000011     50.860750000000010
H      49.909050000000001     51.157620000000009     50.143249999999995
H      51.323050000000002     43.567790000000002     49.537649999999999
H      51.568550000000002     46.213489999999993     50.341049999999996
H      47.726849999999999     52.088820000000013     45.139249999999990
H      49.815449999999998     53.249359999999996     49.568750000000009
H      46.235050000000001     42.697389999999999     46.469949999999997
H      48.350850000000001     41.295789999999997     46.873549999999994
H      50.224649999999997     41.597589999999997     48.330950000000001
H      45.276850000000003     47.755250000000004     45.336550000000003
H      45.672049999999999     49.776650000000004     45.778049999999993
H      44.431449999999998     45.766390000000001     45.980449999999990
H      44.482350000000004     44.139989999999997     46.955749999999995
H      46.821449999999999     50.706030000000005     49.383150000000001
H      49.752949999999998     54.704210000000003     47.576149999999998
H      47.374150000000000     52.177190000000003     50.108649999999997
N      48.740450000000003     53.638000000000005     46.376949999999994
