22

C      46.299049999999987     49.088164999999989     48.910149999999987
C      47.409849999999992     50.281565000000001     49.121749999999999
C      47.463549999999998     47.873265000000004     48.574649999999998
C      48.691549999999992     50.031265000000005     48.091649999999994
C      46.953949999999992     46.293504999999996     46.948649999999994
C      48.335750000000004     48.675965000000005     47.426150000000000
C      47.076650000000001     47.808864999999997     47.233649999999990
C      48.137450000000001     45.736705000000001     46.482449999999993
C      49.406649999999999     47.818264999999997     46.823649999999994
C      49.431449999999998     46.400935000000004     46.541249999999998
H      45.639650000000003     48.910065000000003     49.749549999999992
H      45.734349999999992     49.398565000000005     48.054250000000003
H      46.865449999999996     51.256564999999995     48.750250000000001
H      47.793949999999995     50.339565000000007     50.031849999999999
H      46.105549999999994     45.646715000000000     46.655049999999996
H      47.874549999999999     47.171764999999994     49.328349999999993
H      49.212949999999992     50.740965000000003     47.587249999999990
H      49.320449999999994     49.866865000000004     48.932949999999998
H      46.106549999999999     48.464765000000000     46.847549999999991
H      48.278350000000003     44.743435000000005     45.968150000000001
H      50.297250000000005     48.445565000000002     46.991049999999994
H      50.360349999999997     45.861715000000004     46.119849999999992
