21

C      48.179649999999988     50.211099999999988     46.303599999999989
C      45.813749999999999     49.587100000000000     47.547299999999993
C      49.856049999999996     47.652700000000003     45.926099999999991
C      47.970050000000001     48.406600000000005     47.604299999999995
C      49.031250000000000     47.568300000000001     47.337499999999991
C      47.229149999999990     49.609000000000002     47.133599999999987
C      49.198650000000001     46.318300000000001     48.076799999999992
C      47.362449999999995     48.319600000000001     48.994599999999991
C      48.369149999999991     46.030499999999996     49.297199999999989
C      47.535049999999998     47.122899999999994     49.781799999999990
H      49.183349999999990     49.887099999999997     45.904999999999987
H      48.030049999999989     50.987100000000005     45.553599999999989
H      45.558849999999993     48.727799999999995     47.811299999999989
H      45.047550000000001     50.534200000000006     47.514299999999992
H      49.659149999999997     48.604999999999997     45.380599999999987
H      49.675349999999995     46.786800000000007     45.196500000000000
H      50.952449999999999     47.560899999999997     46.237399999999994
H      50.102350000000001     45.937199999999997     47.661299999999983
H      46.733949999999993     49.360700000000001     49.314599999999999
H      48.794649999999990     45.012899999999995     49.769199999999998
H      47.136949999999999     47.074499999999993     50.803500000000000
