16

C      46.520256000000003     48.614599999999996     47.346149999999994
C      46.505386000000009     49.626500000000000     46.413550000000001
C      47.106086000000005     47.456400000000002     49.110450000000007
C      47.489400000000010     48.452800000000003     48.460450000000002
C      48.150750000000009     46.546100000000003     49.607149999999997
C      48.749960000000009     49.212900000000012     48.571050000000007
C      49.460450000000016     47.114899999999999     49.716050000000003
C      49.675519999999999     48.483600000000003     49.321050000000007
H      46.214730000000024     46.739300000000000     49.173250000000003
H      45.548429999999989     47.900400000000005     47.528649999999992
H      45.591830000000023     49.802000000000000     45.609850000000002
H      47.342430000000014     50.471100000000000     46.273350000000001
H      48.067870000000006     45.528900000000000     49.941150000000000
H      48.884900000000009     50.203800000000001     48.266950000000001
H      50.031590000000001     46.470000000000006     50.390149999999998
H      50.451570000000011     49.139900000000004     49.665150000000004
