60

C      46.423999999999992     46.016698999999988     45.520449999999990
C      45.483400000000003     45.866126999999999     46.743949999999998
C      48.350400000000008     48.780670000000008     46.992350000000002
C      45.839900000000000     49.825759999999995     47.593350000000001
C      50.682200000000009     47.376449999999998     44.554149999999993
C      51.919800000000009     47.439779999999992     45.416150000000002
C      46.612400000000008     51.545740000000002     45.588149999999999
C      46.574900000000000     51.145249999999997     47.256249999999994
C      47.869700000000009     51.275309999999998     46.373549999999994
C      49.554800000000014     49.016920000000006     46.114050000000006
C      48.361300000000000     49.923290000000001     46.158349999999999
C      47.631399999999999     48.408600000000000     48.343450000000004
C      45.976900000000001     48.513190000000002     48.173149999999993
C      45.212100000000007     48.572479999999992     47.034949999999995
C      48.973100000000002     52.237339999999996     46.752449999999996
C      44.043199999999999     48.985720000000001     46.197850000000003
C      45.125200000000007     47.185730000000000     47.706549999999993
C      50.098700000000008     46.949570000000001     48.984549999999999
C      50.356400000000008     50.264600000000002     50.750550000000004
C      49.105699999999999     43.973990000000001     45.702950000000001
C      50.673400000000001     46.930270000000000     47.687849999999997
C      49.139300000000006     45.840080000000000     49.085949999999997
C      50.112700000000004     44.938390000000020     45.751750000000001
C      48.416900000000012     44.035290000000010     47.052549999999997
C      49.961200000000005     45.747246599999997     46.990549999999999
C      49.051900000000003     45.038390000000014     47.847049999999996
C      50.125600000000006     47.766599999999997     50.097049999999996
C      50.121200000000002     48.903489999999998     51.108249999999998
C      49.794100000000000     47.677830000000000     51.558350000000004
C      51.632300000000001     47.862349999999999     46.843649999999997
H      43.282899999999998     48.775810000000000     46.905649999999994
H      46.220399999999998     52.623429999999999     45.361149999999995
H      52.717100000000002     47.939019999999999     44.811849999999993
H      46.048500000000004     47.101729999999996     45.176450000000003
H      47.454099999999997     46.174601000000003     45.910950000000000
H      45.981300000000005     44.974390000000021     47.142949999999999
H      46.664800000000000     45.199089999999998     44.699849999999998
H      44.318500000000000     45.680890000000026     46.425550000000001
H      50.990000000000009     47.195790000000002     43.670150000000007
H      52.445100000000011     46.406445999999995     45.419749999999993
H      46.710500000000010     51.846979999999995     48.075350000000000
H      48.124900000000011     47.577729999999995     48.668449999999993
H      43.864800000000002     50.279059999999994     45.981650000000002
H      44.010300000000001     48.600420000000000     45.161649999999995
H      44.038700000000006     47.008789999999998     48.188050000000004
H      48.348900000000000     52.756009999999996     47.502150000000000
H      50.894500000000008     49.843979999999995     47.549149999999997
H      49.254100000000008     48.338090000000001     43.480649999999997
H      47.601400000000012     49.131129999999992     49.140550000000005
H      46.462600000000009     50.978940000000001     44.799850000000006
H      48.840299999999999     43.243990000000004     44.899450000000002
H      48.701800000000006     45.593589999999985     49.966149999999999
H      50.840200000000010     45.031389999999995     45.029650000000004
H      47.451700000000002     43.419089999999997     47.117850000000004
H      49.495500000000007     47.308209999999995     52.519350000000003
H      52.290100000000010     47.919820000000001     47.612549999999999
N      49.593800000000002     48.187370000000008     44.607450000000000
N      51.005800000000008     49.306800000000003     46.654550000000000
O      50.144000000000005     52.231590000000004     46.554149999999993
O      51.179800000000000     51.007259999999995     51.017349999999993
