22

C      45.747724999999988     47.809949999999994     46.969049999999996
C      46.892315000000011     48.860350000000011     46.413550000000001
C      46.081635000000006     46.958350000000003     48.233149999999995
C      47.752465000000001     49.445350000000005     47.475949999999997
C      47.474345000000000     47.293750000000003     48.921849999999992
C      48.240465000000000     48.474350000000001     48.453249999999997
C      48.181314999999998     46.262950000000004     49.720950000000002
C      49.691365000000005     48.752050000000004     48.618249999999989
C      49.610934999999998     46.437350000000002     49.550049999999999
C      50.396685000000005     47.727750000000000     49.248449999999991
H      45.918325000000010     47.345750000000002     46.117449999999991
H      44.755264999999994     48.094950000000011     46.878649999999993
H      46.243115000000003     49.696849999999998     46.052750000000003
H      47.568845000000010     48.886850000000003     45.623350000000002
H      46.085275000000010     45.769250000000000     48.174650000000000
H      45.171345000000002     47.202750000000002     48.936749999999989
H      47.557505000000006     50.383150000000001     48.023549999999986
H      48.758394999999993     49.642050000000005     46.910249999999991
H      47.437025000000006     45.699050000000000     50.376649999999998
H      50.132515000000012     49.687049999999999     48.174350000000004
H      50.223455000000001     45.616849999999999     49.898649999999989
H      51.244735000000006     47.633250000000004     49.713349999999991
