46

C      49.060650000000003     46.711399999999998     46.719299999999990
C      47.548650000000009     46.409999999999997     47.153299999999994
C      49.046150000000011     50.609299999999990     49.134499999999996
C      48.580150000000003     51.600400000000008     51.440700000000000
C      50.108150000000009     47.748099999999994     46.897299999999994
C      47.162050000000008     47.509000000000000     48.039999999999999
C      50.073450000000008     50.058499999999995     48.276299999999999
C      47.826050000000009     49.805800000000005     49.120600000000003
C      49.538650000000004     48.746600000000001     47.814999999999991
C      48.010850000000005     48.635900000000007     48.283499999999997
C      49.345650000000006     45.789000000000001     45.644100000000002
C      48.324849999999998     44.950699999999998     45.057399999999994
C      47.075650000000010     44.655500000000004     45.667299999999997
C      46.662450000000007     45.329599999999999     46.774700000000003
C      51.430950000000010     47.902400000000000     46.483200000000004
C      51.336750000000009     47.318899999999999     45.057600000000001
C      50.770150000000001     45.903900000000007     44.839599999999997
C      45.728450000000009     47.690899999999999     48.513600000000004
C      45.061650000000000     46.346100000000007     48.719500000000004
C      45.269050000000007     45.217799999999997     47.464599999999997
C      43.757649999999998     46.359600000000000     49.339399999999991
C      52.471150000000009     47.403599999999997     47.547500000000007
C      49.148550000000000     51.632300000000001     50.224499999999999
H      51.079350000000005     50.286500000000004     47.989100000000001
H      46.596050000000005     50.084599999999995     49.583000000000006
H      46.474150000000009     43.729799999999997     45.331799999999994
H      51.807250000000010     48.969999999999999     46.417299999999997
H      52.365949999999998     47.479200000000006     44.585000000000001
H      50.635649999999998     47.907600000000002     44.300400000000003
H      50.439850000000007     45.966499999999996     43.776400000000002
H      51.625750000000011     44.996099999999998     44.769500000000001
H      45.465050000000005     48.482699999999994     49.176700000000004
H      45.155050000000003     48.203500000000005     47.660199999999996
H      45.757649999999998     45.786200000000008     49.434300000000000
H      44.971550000000008     44.287400000000005     47.658799999999999
H      44.413850000000011     45.429199999999994     46.782999999999994
H      43.626649999999998     45.354700000000008     49.866599999999998
H      42.946950000000001     46.127499999999998     48.677600000000005
H      43.721350000000001     46.966700000000003     50.229199999999999
H      53.053049999999999     46.563900000000004     47.095400000000005
H      52.930450000000008     48.105400000000003     48.388500000000001
H      51.824350000000010     46.906000000000006     48.310699999999990
H      49.992750000000001     52.270200000000003     50.303899999999992
H      49.337450000000004     52.116900000000001     52.223599999999998
H      48.467050000000000     44.256799999999998     44.260100000000001
O      47.469350000000006     51.162999999999997     51.824099999999994
