22

C      49.720299999999995     47.462399999999988     49.563949999999991
C      49.318500000000000     46.144300000000001     48.862549999999999
C      49.464700000000008     48.786699999999996     49.118650000000002
C      47.678600000000003     46.158699999999996     48.827249999999999
C      48.065700000000007     48.723200000000006     48.311149999999998
C      47.387799999999999     47.415700000000001     47.955449999999999
C      47.435200000000009     49.706500000000005     47.517649999999996
C      46.551900000000003     47.059399999999997     46.852950000000000
C      46.395899999999997     49.456800000000001     46.511850000000003
C      45.992300000000000     48.180899999999994     46.091949999999997
H      50.842900000000000     47.409599999999998     50.018450000000009
H      48.998199999999997     47.489999999999995     50.585950000000004
H      49.590500000000006     45.135000000000005     49.119950000000003
H      49.689300000000003     46.187399999999997     47.724649999999997
H      50.175399999999996     49.147900000000007     48.460949999999997
H      49.397199999999998     49.302000000000007     50.053150000000009
H      47.558599999999998     45.149699999999996     48.601549999999996
H      47.086600000000004     46.296499999999995     49.935850000000002
H      47.597800000000007     50.864999999999995     47.653649999999999
H      46.309100000000001     45.998099999999994     46.773550000000000
H      45.997700000000009     50.432800000000000     46.080050000000000
H      45.157100000000000     47.820300000000003     45.414049999999996
