6

C      48.526749999999993     48.182599999999994     48.192099999999996
C      47.259749999999997     47.639099999999999     47.997500000000002
H      49.181150000000002     48.915199999999999     47.557999999999993
H      49.155549999999991     48.038100000000000     49.149799999999999
H      46.818849999999998     47.084800000000001     48.794299999999993
H      46.907550000000001     47.597000000000008     46.850200000000001
