21

C      49.636649999999989     49.251079999999988     49.560299999999991
C      49.506249999999994     49.672979999999995     46.726699999999994
C      49.846049999999991     48.720780000000005     47.949799999999996
C      47.987250000000003     49.752679999999998     47.047899999999998
C      48.794349999999994     48.305380000000000     48.743600000000001
C      47.626750000000001     48.611279999999994     48.049700000000001
C      46.415549999999996     47.926980000000000     48.378200000000000
C      48.902450000000002     46.908959999999993     49.268299999999996
C      46.422749999999994     46.613150000000005     48.939799999999998
C      47.657849999999996     46.166060000000002     49.496099999999998
H      49.743449999999996     50.402479999999997     49.599099999999993
H      50.304349999999999     48.727080000000001     50.155299999999997
H      49.684249999999992     49.178880000000007     45.769700000000000
H      50.007550000000009     50.608680000000007     46.531700000000001
H      50.503550000000004     47.839680000000001     47.635300000000001
H      47.253050000000002     49.896780000000007     46.314200000000000
H      47.742350000000002     50.532179999999997     47.993499999999997
H      45.496449999999996     48.384280000000004     48.357999999999997
H      49.467349999999996     46.486130000000003     50.230300000000000
H      45.720050000000001     45.858270000000005     49.296399999999998
H      47.739549999999994     45.391319999999993     50.208600000000004
