22

C      48.964699999999993     46.791399999999996     49.869999999999997
C      47.837499999999999     47.347599999999993     50.618799999999993
C      48.372599999999998     46.289200000000001     48.425800000000002
C      47.508299999999998     48.757899999999999     50.044600000000003
C      47.830800000000004     47.440099999999994     47.603200000000001
C      47.381200000000000     48.570000000000000     48.402500000000003
C      47.573999999999991     47.179399999999994     46.306600000000003
C      46.919400000000003     49.643999999999998     47.676299999999998
C      47.072200000000002     48.273199999999996     45.527200000000001
C      46.558199999999992     49.380900000000004     46.270000000000003
H      49.309099999999994     45.818899999999992     50.229100000000003
H      49.957500000000003     47.708400000000005     49.696200000000005
H      47.019399999999997     46.698100000000004     50.548700000000004
H      48.190099999999994     47.408999999999999     51.602300000000000
H      49.209899999999998     45.704299999999996     47.851800000000004
H      47.706399999999995     45.481299999999997     48.671399999999998
H      46.532800000000002     49.318000000000005     50.748800000000003
H      48.292099999999998     49.399999999999999     50.456800000000001
H      48.053099999999993     46.182399999999994     45.666800000000002
H      46.429200000000002     50.518700000000003     47.996400000000001
H      47.027399999999993     48.020199999999996     44.397700000000000
H      46.042499999999997     50.280499999999996     45.854399999999998
