22

C      46.459099999999999     47.297899999999998     46.715549999999986
C      48.322900000000004     45.924600000000005     46.038250000000005
C      48.001500000000007     47.384099999999997     46.410049999999998
C      49.016000000000005     45.682400000000001     47.496549999999999
C      48.540100000000010     48.035000000000004     47.509249999999994
C      49.046600000000012     46.996500000000005     48.476050000000001
C      49.042700000000011     49.386700000000005     47.749150000000000
C      49.788200000000003     47.510800000000010     49.559849999999997
C      49.668700000000001     49.874500000000005     48.904449999999997
C      50.012500000000003     48.871700000000004     49.890249999999995
H      46.409900000000007     46.445399999999999     46.059250000000006
H      46.135000000000005     46.764500000000005     47.625649999999993
H      45.531300000000002     47.755400000000002     46.994249999999994
H      47.705200000000005     45.199700000000000     46.125749999999996
H      49.151600000000002     46.021800000000006     45.270250000000004
H      47.989600000000010     48.040500000000002     45.450649999999996
H      48.129500000000007     45.002299999999998     47.876850000000005
H      49.999700000000004     45.218899999999998     47.482050000000001
H      48.912600000000012     49.749900000000004     46.642049999999998
H      50.327300000000008     46.590700000000005     49.989549999999994
H      49.807700000000011     50.997700000000002     49.174849999999992
H      50.468699999999998     49.149000000000001     50.729749999999996
