22

C      50.095399999999998     48.280649999999987     49.965499999999992
C      48.386600000000001     48.712849999999996     50.429699999999997
C      50.320899999999995     47.162349999999996     46.596499999999999
C      48.866000000000000     48.570349999999991     49.026499999999999
C      48.274500000000003     47.570449999999994     48.259200000000000
C      48.802700000000002     47.040649999999999     46.949700000000000
C      46.754899999999992     47.545949999999991     48.185899999999997
C      47.923800000000000     46.814449999999994     45.780899999999995
C      45.996600000000001     47.330549999999995     47.030400000000000
C      46.563900000000004     47.090549999999993     45.710799999999999
H      50.278199999999998     47.168549999999996     50.221100000000000
H      50.878399999999999     49.014749999999992     49.770099999999999
H      47.691000000000003     48.052949999999996     51.094100000000005
H      48.082399999999993     49.778250000000000     50.393200000000000
H      51.009699999999995     47.060649999999995     47.402699999999996
H      50.497699999999995     48.187049999999999     45.888799999999996
H      48.752600000000001     49.624949999999998     48.465100000000000
H      50.379499999999993     46.517849999999996     45.742699999999999
H      46.283500000000004     47.740150000000000     49.225699999999996
H      48.186599999999999     46.221750000000000     44.910399999999996
H      44.990300000000005     47.119450000000001     47.083500000000001
H      45.817700000000002     47.040749999999996     44.905899999999995
