12

C      47.233528999999997     47.846599999999995     47.205549999999995
C      49.540929000000006     47.970599999999997     48.595349999999996
C      46.924129000000008     48.532299999999999     48.681550000000001
C      47.958028999999996     47.552799999999998     48.560749999999999
H      46.404128999999998     47.123500000000000     47.028750000000002
H      48.082029000000006     47.746900000000004     46.512349999999998
H      50.106171000000003     48.135200000000005     49.487650000000002
H      49.840229000000008     49.187700000000000     48.325350000000000
H      47.748328999999998     46.497499999999995     48.765950000000004
H      45.893828999999997     48.228199999999994     49.130549999999999
H      47.239529000000005     49.502500000000005     48.581050000000005
H      49.979129000000000     47.367399999999996     47.961350000000003
