6

C      47.788149999999995     48.420049999999996     48.298699999999990
C      48.022550000000010     47.275450000000006     47.637200000000000
H      47.617750000000001     49.543850000000006     48.155499999999996
H      47.790950000000009     48.317350000000005     49.477500000000006
H      47.873249999999999     47.145849999999996     46.522499999999994
H      48.382249999999999     46.456149999999994     48.370199999999997
