7

C      47.338749999999990     47.489799999999988     47.583949999999994
C      48.546249999999986     48.500400000000006     47.826250000000002
H      48.356849999999994     49.532900000000005     47.430750000000003
H      49.548749999999998     48.442600000000006     47.463750000000005
H      48.585449999999994     49.072899999999997     48.844949999999997
H      46.451250000000002     48.224200000000003     47.863750000000010
O      47.370149999999995     46.467099999999995     47.155050000000003
