22

C      48.421949999999988     49.489399999999996     49.859399999999994
C      47.228149999999999     50.287999999999997     49.068100000000001
C      48.882750000000001     48.281499999999994     48.890699999999995
C      46.414349999999999     48.839299999999994     48.756999999999991
C      47.135049999999993     46.655100000000004     47.608999999999995
C      47.617949999999993     48.036299999999997     48.095599999999990
C      47.851150000000004     46.012900000000002     46.786500000000004
C      48.637349999999998     48.722999999999999     47.326599999999999
C      49.115849999999995     46.500299999999996     46.204300000000003
C      49.498050000000006     47.834900000000005     46.331999999999994
H      48.069549999999992     49.037099999999995     50.731099999999998
H      49.224350000000001     50.249300000000005     49.997900000000001
H      46.557249999999996     50.995000000000005     49.470699999999994
H      47.325950000000006     50.774799999999999     48.109600000000000
H      46.160849999999996     46.159599999999998     47.987200000000001
H      49.885350000000003     48.033299999999997     49.043499999999995
H      45.783749999999998     49.005899999999997     48.083299999999994
H      46.363849999999999     48.377200000000002     49.620499999999993
H      47.329549999999998     45.004999999999995     46.428799999999995
H      48.617050000000006     49.720500000000001     47.256799999999998
H      49.485450000000000     46.053600000000003     45.268900000000002
H      50.216250000000002     48.262799999999999     45.974800000000002
