6

C      47.763599999999997     47.475099999999991     48.245649999999998
C      48.205500000000001     48.577500000000001     47.628950000000003
H      47.224800000000002     46.566800000000001     47.790250000000000
H      48.058099999999996     47.507199999999997     49.388050000000007
H      48.053899999999999     48.894899999999993     46.611949999999993
H      48.775199999999998     49.433199999999999     48.163849999999996
