22

C      47.492399999999996     49.664800000000000     50.015449999999994
C      48.638300000000001     50.439700000000002     49.077050000000000
C      47.884399999999999     48.252200000000002     49.912150000000004
C      48.690400000000011     49.863899999999987     47.591149999999999
C      48.701099999999997     47.712599999999995     48.771950000000004
C      48.823800000000006     48.411299999999997     47.521850000000001
C      48.860700000000001     46.206199999999995     48.508850000000002
C      49.053500000000000     47.773399999999995     46.211950000000002
C      49.149000000000001     45.489000000000004     47.343249999999998
C      49.208600000000004     46.315100000000001     46.165149999999997
H      46.271500000000003     49.800299999999993     49.802150000000005
H      47.614899999999999     49.877499999999998     50.985349999999997
H      48.363000000000000     51.572999999999993     49.130050000000004
H      49.728499999999997     50.333500000000001     49.408250000000002
H      48.547600000000003     48.002700000000004     50.751649999999998
H      46.957799999999999     47.942499999999995     49.953450000000004
H      49.317300000000003     50.257300000000001     46.861850000000004
H      47.608800000000002     49.884599999999992     47.187049999999999
H      48.788000000000011     45.528099999999995     49.305650000000000
H      49.432099999999998     48.390500000000003     45.512450000000001
H      49.369799999999998     44.427000000000007     47.409850000000006
H      49.396100000000004     45.963499999999996     45.014650000000003
