22

C      48.558149999999991     47.871099999999998     45.274199999999993
C      49.907650000000004     48.316699999999997     46.103699999999996
C      47.197150000000001     48.179800000000000     45.964400000000005
C      49.890850000000000     47.770400000000009     47.509099999999997
C      47.268149999999999     47.870400000000004     47.512899999999995
C      48.574249999999999     47.468299999999999     48.247599999999998
C      46.092750000000002     48.265900000000002     48.222400000000000
C      48.488750000000003     47.219900000000010     49.677799999999998
C      46.189349999999997     47.877400000000009     49.616099999999996
C      47.295450000000002     47.335599999999999     50.399499999999996
H      48.750250000000001     46.906999999999996     44.894500000000001
H      48.284750000000003     48.574200000000005     44.504300000000001
H      50.356650000000002     49.105300000000000     45.516300000000001
H      50.639850000000010     47.591099999999997     45.856400000000001
H      47.198349999999998     49.241699999999994     46.066300000000005
H      46.146149999999999     48.088800000000006     45.465499999999999
H      50.495149999999995     48.420000000000002     48.591599999999993
H      50.853250000000003     47.321500000000000     47.813899999999997
H      45.241150000000005     48.569400000000002     47.918799999999997
H      49.375749999999996     46.953500000000005     50.308000000000000
H      45.146749999999997     48.011099999999999     50.093200000000003
H      47.036949999999997     46.758300000000006     51.495699999999999
