21

C      47.535499999999992     50.221106499999983     48.827349999999996
C      46.780299999999997     47.882066499999993     49.256750000000004
C      49.189200000000000     48.239046499999994     49.352249999999991
C      47.502800000000001     46.373746499999996     49.460950000000004
C      47.970700000000008     48.820236499999993     48.847050000000003
C      48.812600000000003     46.488856499999997     48.700349999999993
C      47.869200000000006     49.178056499999997     47.194949999999999
C      49.367999999999995     45.656146499999991     47.738350000000004
C      48.646000000000001     48.105106499999991     46.407049999999991
C      48.932099999999998     46.958096499999996     47.277549999999998
H      46.740499999999997     50.013326499999991     49.529350000000001
H      48.412500000000009     50.811316500000004     48.979649999999999
H      46.099000000000004     48.200676499999993     50.229449999999993
H      45.857299999999995     47.878746499999991     48.701450000000001
H      50.142700000000005     48.860956499999993     49.050549999999994
H      49.299900000000008     48.208086499999993     50.449549999999995
H      47.472000000000001     46.093696499999993     50.561050000000002
H      47.113799999999998     45.401628499999994     48.723250000000000
H      47.823700000000002     50.279636499999995     46.776049999999991
H      49.879000000000005     45.188683499999996     46.826850000000000
H      49.226299999999995     48.209716499999992     45.438949999999998
