22

C      46.924149999999997     46.138604999999998     47.444349999999993
C      45.682249999999996     47.233095000000006     47.402549999999998
C      48.185549999999992     47.499795000000006     49.350149999999999
C      46.034149999999997     48.553395000000009     48.185749999999999
C      48.113649999999993     47.404595000000000     47.593950000000000
C      47.417349999999999     48.556394999999995     48.360349999999997
C      49.529350000000008     47.595794999999995     47.172750000000001
C      48.075550000000007     49.618795000000006     48.911049999999989
C      50.160150000000002     48.752195000000000     47.814650000000000
C      49.530149999999992     49.657494999999997     48.709350000000001
H      46.972250000000003     45.334905000000006     48.263450000000006
H      47.113249999999994     45.589665000000011     46.494250000000001
H      44.824349999999995     46.742095000000006     47.598050000000001
H      45.714250000000007     47.215594999999993     46.297049999999999
H      47.801850000000002     46.438995000000006     49.674349999999997
H      49.185649999999995     47.836795000000009     49.702950000000001
H      45.316050000000004     49.187395000000009     48.771249999999995
H      46.092950000000002     49.334594999999993     47.367649999999998
H      49.965350000000001     46.816095000000004     46.555450000000000
H      47.824749999999995     50.665094999999994     48.383550000000000
H      51.175650000000005     48.872995000000003     47.677850000000007
H      50.061149999999998     50.424994999999996     49.209950000000006
