165

C      53.175249999999998     48.752450000000003     51.607049999999987
C      53.051350000000006     50.012550000000005     52.587349999999986
C      48.812350000000009     56.440249999999999     47.587450000000004
C      50.181150000000009     49.068250000000006     46.624250000000004
C      49.226950000000009     56.373750000000008     48.972549999999998
C      48.539950000000012     55.207850000000008     46.994850000000000
C      49.382650000000005     50.260850000000012     46.387450000000001
C      53.072749999999999     49.152850000000001     50.159549999999996
C      52.757450000000006     51.366250000000001     51.951449999999994
C      51.213850000000008     49.144850000000012     47.786749999999998
C      50.418450000000007     54.853150000000007     50.808049999999994
C      51.304150000000007     53.837250000000004     51.312150000000003
C      48.677650000000007     52.590450000000011     46.855750000000000
C      49.680050000000008     54.994350000000004     49.522549999999995
C      49.110750000000010     53.917850000000001     47.498949999999994
C      49.447250000000011     51.394050000000007     47.183849999999993
C      52.201950000000011     50.435150000000000     49.680949999999996
C      52.303750000000008     51.594650000000001     50.598649999999992
C      51.310749999999999     50.292750000000005     48.684749999999994
C      51.297550000000008     52.689450000000008     50.409750000000003
C      49.660250000000005     53.830649999999999     48.881249999999994
C      50.265650000000008     51.418450000000007     48.340350000000001
C      50.359950000000005     52.560150000000007     49.285650000000004
C      52.897050000000007     47.992950000000008     49.230450000000005
C      51.923550000000006     47.973250000000007     48.125550000000004
C      54.449150000000003     48.742550000000008     51.068849999999998
C      55.297550000000008     49.846550000000008     51.092649999999992
C      55.280549999999998     50.931350000000009     52.026149999999987
C      54.121050000000004     51.436750000000004     52.847650000000002
C      55.049650000000007     47.421250000000008     50.342950000000002
C      53.569749999999999     46.790750000000010     49.966149999999999
C      49.931350000000009     47.630150000000000     46.225149999999999
C      50.306250000000006     46.327750000000009     47.013850000000005
C      51.740350000000007     46.782350000000008     47.228549999999998
C      49.333550000000010     57.441749999999999     50.069549999999992
C      50.429050000000011     57.396349999999998     51.025549999999996
C      50.777150000000006     56.054250000000010     51.755149999999986
C      50.313150000000007     44.908150000000006     45.953350000000000
C      50.545950000000005     47.450650000000010     44.804050000000004
C      47.578749999999999     52.529550000000000     46.023749999999993
C      48.487350000000006     50.143450000000001     42.025549999999996
C      48.462450000000004     51.598250000000007     42.332049999999995
C      52.952350000000010     50.587150000000008     43.617149999999995
C      49.635550000000009     49.369650000000007     42.318449999999999
C      49.628250000000008     52.178250000000006     43.082849999999993
C      52.278650000000006     49.352850000000011     42.784649999999999
C      52.098650000000006     51.646350000000005     43.694050000000004
C      50.860250000000008     50.040550000000010     42.641949999999994
C      50.770550000000007     51.358050000000006     43.206850000000003
C      47.100550000000005     49.474950000000007     41.634050000000002
C      45.834150000000008     50.304450000000010     41.595849999999999
C      45.999350000000007     51.747350000000012     41.770049999999998
C      47.204350000000005     52.264750000000006     42.213750000000005
C      47.108150000000009     48.080850000000012     41.472350000000006
C      45.798650000000009     47.370950000000008     41.327349999999996
C      44.631250000000009     48.289950000000012     41.180049999999994
C      44.634350000000005     49.718350000000001     41.207049999999995
C      49.603650000000009     47.819750000000006     42.116849999999999
C      48.437150000000010     47.225550000000013     41.368250000000003
C      49.296850000000006     47.167050000000010     43.611750000000001
C      54.310749999999999     50.470350000000010     44.287549999999996
C      54.416150000000002     50.088850000000008     45.893950000000004
C      43.453150000000008     47.708449999999999     42.171949999999995
C      43.781650000000006     42.385350000000003     51.827449999999999
C      48.291750000000008     43.725850000000008     46.944950000000006
C      44.139850000000010     41.171750000000003     50.787350000000004
C      47.879850000000012     42.395650000000003     46.770849999999996
C      44.410050000000005     43.616450000000007     52.023349999999994
C      47.963350000000005     44.622650000000007     48.051249999999996
C      45.107550000000010     41.120750000000008     49.771950000000004
C      46.838850000000008     41.849050000000013     47.670249999999996
C      46.232550000000010     44.624950000000013     50.292749999999998
C      45.462350000000001     43.614550000000008     50.857349999999997
C      46.960350000000005     44.277550000000012     49.018850000000000
C      45.564050000000009     42.517950000000006     49.769649999999999
C      46.452550000000002     42.962150000000008     48.748850000000004
C      45.541150000000009     40.056650000000012     48.928950000000000
C      46.410350000000008     40.525250000000007     47.780149999999992
C      42.602650000000011     42.125350000000012     52.663149999999987
C      41.739450000000005     41.022450000000006     52.404250000000005
C      42.081250000000011     39.833550000000002     51.559250000000006
C      43.380850000000009     39.900050000000007     51.012349999999998
C      43.844149999999999     38.541750000000008     50.598649999999992
C      44.657150000000001     38.855850000000011     49.322749999999999
C      44.266550000000009     44.747850000000007     52.950350000000000
C      43.011750000000006     44.385850000000012     53.885249999999999
C      41.935650000000010     43.361850000000011     53.471649999999997
C      43.955350000000010     45.918250000000000     52.153449999999992
C      41.051550000000006     43.205250000000007     54.797549999999987
C      40.252450000000010     40.699150000000003     52.841149999999999
C      49.042850000000001     44.185650000000010     45.764049999999997
C      41.319650000000010     38.670750000000012     51.459450000000004
H      48.724249999999998     57.356350000000013     47.074749999999995
H      48.118250000000003     55.121150000000000     46.015749999999997
H      48.712250000000012     50.180050000000008     45.438950000000006
H      51.909850000000006     51.708850000000012     52.634450000000001
H      53.581850000000010     49.617550000000008     53.411550000000005
H      51.753850000000000     53.697450000000011     52.388649999999998
H      56.377150000000000     49.939750000000011     50.915049999999994
H      56.257350000000002     51.528750000000002     52.221949999999993
H      54.127350000000000     51.856549999999999     53.890249999999995
H      55.938050000000004     46.636750000000006     50.773949999999999
H      55.354150000000011     47.848350000000011     49.418650000000000
H      53.664550000000006     45.790550000000010     49.379949999999994
H      52.961550000000010     46.254450000000006     50.736149999999995
H      48.853750000000005     47.679550000000006     46.062749999999994
H      49.827050000000007     46.132250000000006     47.849050000000005
H      52.224350000000008     45.787150000000011     47.604450000000000
H      52.497250000000008     47.135250000000006     46.345649999999992
H      49.112050000000011     58.475549999999998     49.862549999999999
H      50.749650000000003     58.393450000000001     50.686350000000004
H      50.789150000000006     56.324350000000010     52.803249999999991
H      51.991350000000011     56.175850000000004     51.402950000000004
H      50.780750000000012     43.792050000000010     46.355549999999994
H      50.794250000000005     45.156350000000010     45.035650000000004
H      51.154950000000007     48.235150000000004     44.573949999999996
H      51.235950000000010     46.511150000000008     44.583249999999992
H      47.195450000000008     51.506250000000001     45.558250000000001
H      46.892650000000010     53.299850000000006     45.675950000000000
H      52.919950000000000     49.387650000000008     41.898949999999999
H      49.650950000000009     53.074650000000013     43.637249999999995
H      52.239050000000006     48.370250000000006     43.132149999999996
H      52.405150000000006     52.618350000000000     44.192949999999996
H      45.108850000000011     52.392250000000004     41.843450000000004
H      47.287750000000010     53.510950000000001     42.370850000000004
H      45.804450000000010     46.294950000000007     41.622349999999997
H      43.876650000000005     50.384550000000004     40.986549999999994
H      50.725050000000010     47.241050000000001     41.846050000000005
H      48.128350000000012     46.259250000000009     41.718949999999992
H      48.582350000000005     47.008150000000008     40.292649999999995
H      48.781050000000008     46.215950000000007     43.497249999999994
H      48.401150000000008     47.537750000000003     44.007549999999995
H      54.859150000000000     49.671350000000011     43.675349999999995
H      55.088150000000006     51.334050000000005     44.127849999999995
H      55.094349999999999     49.031250000000000     46.005549999999999
H      53.473750000000003     49.904450000000011     46.564949999999996
H      54.789749999999998     50.918950000000009     46.490549999999999
H      42.933450000000008     48.692750000000011     42.459249999999997
H      44.039650000000009     47.415750000000003     42.985249999999994
H      43.181750000000008     46.849350000000001     41.588549999999998
H      48.251450000000006     41.927650000000007     45.864450000000005
H      48.466850000000008     45.536950000000004     48.391850000000005
H      46.159350000000011     45.696250000000006     50.830150000000003
H      46.530150000000006     39.638850000000012     47.261949999999999
H      43.768850000000008     37.524450000000002     51.046549999999996
H      45.082550000000005     37.935950000000012     49.113749999999996
H      45.343250000000012     45.304050000000011     53.286450000000002
H      42.543150000000011     45.210850000000008     54.560649999999995
H      43.747950000000003     44.129450000000006     54.759049999999988
H      41.465550000000007     43.929550000000006     52.729949999999988
H      44.445850000000007     46.773650000000004     52.754349999999988
H      44.178350000000009     45.820750000000004     51.017449999999997
H      43.008650000000010     46.617850000000011     52.522149999999996
H      40.472250000000010     43.996450000000010     55.256749999999997
H      40.550350000000009     42.183950000000010     54.846449999999990
H      41.608750000000008     43.080350000000010     55.707350000000005
H      39.622850000000000     41.526650000000011     52.888649999999998
H      40.250050000000009     39.731750000000012     53.744249999999994
H      40.056950000000001     40.030450000000009     51.801850000000002
H      48.317149999999998     44.730250000000012     45.086950000000002
H      49.497250000000008     43.286750000000012     45.229150000000004
H      41.831650000000010     37.742650000000012     51.937349999999995
H      40.150750000000002     38.619050000000009     51.570750000000004
H      41.095849999999999     38.288550000000001     50.464349999999996
H      52.469850000000008     47.944650000000010     51.733750000000001
