22

C      46.311699999999995     46.373149999999995     47.219649999999994
C      46.875500000000002     47.089250000000000     46.010549999999995
C      46.053500000000000     47.632750000000009     48.316050000000004
C      48.333399999999997     47.464250000000000     46.179150000000007
C      47.434100000000001     48.435350000000007     48.601950000000002
C      48.444700000000012     48.470149999999997     47.521950000000004
C      47.510600000000004     49.570349999999998     47.788849999999996
C      49.929500000000004     48.350250000000003     48.034750000000003
C      48.326799999999992     48.006350000000005     49.683350000000004
C      49.709900000000005     47.951649999999994     49.349750000000000
H      47.069200000000009     45.666750000000000     47.560649999999995
H      45.271500000000003     45.795249999999996     46.879850000000005
H      46.400000000000006     48.019749999999995     45.664850000000001
H      46.621399999999994     46.412849999999999     45.289649999999995
H      45.383900000000004     47.211750000000002     49.169750000000008
H      45.666900000000005     48.466949999999997     47.854250000000008
H      48.982300000000002     46.621650000000002     45.950150000000008
H      49.000500000000002     48.310049999999997     45.484449999999995
H      47.017200000000003     50.333250000000000     47.185749999999999
H      50.728499999999997     48.225149999999992     47.351349999999996
H      47.820100000000004     47.643349999999991     50.710350000000005
H      50.528700000000001     47.842950000000002     50.085250000000002
