22

C      48.124499999999983     47.565599999999989     49.739049999999999
C      47.130099999999992     48.655700000000003     50.435950000000005
C      49.517599999999995     48.231800000000000     48.017750000000007
C      47.016299999999994     49.625400000000006     48.952950000000001
C      48.219799999999999     47.708700000000000     48.247950000000003
C      47.033700000000003     48.562399999999990     47.735250000000008
C      48.535499999999992     46.672599999999996     47.329149999999998
C      46.357099999999996     48.505299999999998     46.583550000000002
C      47.774799999999992     46.501700000000000     46.052549999999997
C      46.866899999999994     47.463099999999997     45.670249999999996
H      49.205599999999997     47.570699999999995     50.058850000000007
H      47.762300000000003     46.603699999999996     49.831950000000006
H      47.355600000000003     49.295899999999996     51.472650000000002
H      46.263399999999997     48.195599999999999     50.468350000000001
H      49.733699999999992     49.085499999999996     47.182950000000005
H      50.338799999999999     47.600599999999993     48.404250000000005
H      47.941099999999999     50.213799999999999     49.091250000000002
H      45.940800000000003     49.951299999999996     49.140450000000001
H      49.477899999999998     46.022900000000000     47.499650000000003
H      45.661200000000001     49.244900000000001     46.302250000000001
H      48.076400000000000     45.786200000000001     45.271750000000004
H      46.266599999999990     47.432600000000001     44.527349999999998
