6

C      47.512499999999989     48.710549999999998     48.589599999999990
C      48.230300000000014     47.854850000000006     47.388800000000003
H      48.284999999999997     46.832050000000002     47.536299999999997
H      47.519199999999998     47.900050000000007     46.660000000000004
H      49.160600000000002     48.450050000000005     47.260500000000000
O      46.839399999999998     49.167949999999998     49.339999999999996
