38

C      47.172379999999983     50.929949999999991     49.503399999999985
C      45.614650000000012     50.257050000000000     49.210499999999996
C      47.292379999999987     48.579550000000005     49.872699999999995
C      46.555922999999986     49.785649999999997     50.308299999999996
C      47.617139999999992     48.195149999999998     48.393299999999996
C      45.860550000000011     49.739049999999999     51.631200000000000
C      47.262089999999986     47.878350000000005     51.171600000000005
C      46.346319999999984     48.523150000000001     52.142400000000002
C      50.240689999999987     45.511249999999997     44.845199999999991
C      48.819649999999989     45.270750000000000     43.951899999999995
C      50.143299999999982     46.946750000000002     45.400699999999993
C      48.047379999999990     46.640349999999998     43.904199999999996
C      48.728299999999990     46.894550000000002     46.185199999999995
C      47.568759999999997     46.749150000000000     45.345099999999995
C      48.326969999999989     46.867550000000001     47.646699999999996
C      46.194063999999990     46.806149999999995     45.693099999999994
C      46.774577999999984     47.070149999999998     48.105299999999993
C      45.857850000000006     46.820550000000004     47.137699999999995
H      47.733879999999985     50.580950000000001     48.705699999999993
H      47.165779999999984     51.816949999999999     50.092700000000001
H      45.862350000000006     49.946850000000005     48.177099999999996
H      44.905850000000015     50.979049999999994     49.169099999999993
H      47.821799999999989     49.049849999999999     47.778199999999998
H      45.045449999999981     50.317250000000001     51.863900000000008
H      47.366459999999989     46.727449999999997     51.315699999999985
H      46.193091999999986     47.995449999999998     53.077500000000008
H      51.094149999999985     45.952950000000001     44.208699999999993
H      50.484369999999984     44.687049999999999     45.299699999999994
H      48.624239999999986     44.183050000000001     44.425099999999993
H      49.053469999999990     44.709150000000001     42.922499999999992
H      50.668289999999985     47.070249999999994     46.314799999999998
H      50.171629999999986     47.716249999999995     44.596099999999993
H      47.308419999999984     46.617650000000005     43.199499999999993
H      48.534689999999983     47.534150000000004     43.546999999999997
H      48.940739999999984     46.178550000000001     48.199899999999992
H      45.310050000000004     47.051749999999998     44.920999999999992
H      46.609782999999986     46.621850000000002     49.004999999999995
H      44.915350000000011     46.441250000000004     47.755299999999991
