22

C      50.665189999999996     48.338599999999992     48.895250000000004
C      49.188730000000000     48.402600000000007     49.643850000000000
C      50.420330000000000     48.308399999999999     47.527149999999992
C      45.881900000000002     48.340499999999999     49.911850000000001
C      49.062180000000005     47.763700000000000     47.456049999999991
C      48.133920000000003     47.912199999999999     48.559349999999995
C      48.633270000000003     47.094399999999993     46.280349999999999
C      46.577590000000001     47.897399999999998     48.502749999999992
C      47.091540000000002     46.988399999999999     46.194549999999992
C      46.207660000000004     47.364099999999993     47.157550000000001
H      50.652890000000006     47.177499999999995     48.890349999999998
H      51.055889999999998     48.733099999999993     49.876949999999994
H      48.864480000000000     49.372100000000003     49.750450000000001
H      48.927620000000005     47.770399999999995     50.531350000000003
H      50.733989999999999     49.085800000000006     46.845550000000003
H      51.209190000000000     47.603600000000000     47.108449999999991
H      44.790810000000000     48.451599999999999     50.222049999999996
H      46.386790000000005     47.655900000000003     50.703949999999992
H      49.179940000000002     46.873199999999997     45.419049999999999
H      46.223840000000003     49.211500000000001     49.737449999999995
H      46.659570000000002     46.627899999999997     45.296050000000008
H      45.107630000000000     47.272399999999998     46.985249999999994
