5

C      47.863799999999991     48.260899999999985     47.887799999999991
H      47.224400000000003     48.420699999999997     48.775700000000001
H      48.775599999999997     48.390099999999990     48.350899999999996
H      47.299300000000002     48.819699999999997     47.224299999999999
H      48.236500000000007     47.180300000000003     47.639699999999998
