21

C      45.392699999999991     48.537349999999996     46.766849999999991
C      47.541699999999999     50.243950000000012     49.291649999999997
C      46.757700000000007     48.560650000000010     46.970549999999996
C      48.266600000000004     50.174850000000006     47.886350000000000
C      49.173300000000005     47.855950000000007     47.588850000000001
C      48.076299999999996     48.836550000000003     47.280949999999997
C      49.026800000000001     46.446450000000013     47.317650000000008
C      49.967599999999997     47.600550000000013     48.764149999999994
C      50.209700000000005     45.688749999999999     47.797649999999997
C      50.728500000000004     46.391850000000005     49.041649999999997
H      45.126700000000000     47.837550000000007     45.720050000000001
H      44.661200000000001     49.301550000000006     46.937549999999995
H      46.638299999999994     49.590150000000008     48.696349999999995
H      47.592499999999994     51.148550000000000     49.890149999999998
H      47.969699999999996     49.730050000000006     50.279949999999999
H      47.837200000000003     50.796450000000007     47.042349999999999
H      49.078899999999997     50.939650000000000     48.258350000000000
H      48.472799999999999     45.916350000000008     46.500949999999996
H      50.258699999999997     48.333850000000012     49.472649999999994
H      50.700499999999998     44.851450000000000     47.141849999999998
H      51.338799999999999     46.179650000000009     49.998149999999988
