22

C      49.119499999999995     45.863849999999992     48.358299999999993
C      50.107299999999995     47.068349999999995     48.610799999999998
C      47.699500000000008     46.137650000000008     48.899199999999993
C      49.640800000000013     48.277150000000006     47.645800000000001
C      47.393900000000002     47.460450000000009     48.230300000000000
C      48.131600000000006     48.187849999999997     47.331600000000002
C      46.042900000000003     48.063350000000000     48.565199999999990
C      47.707600000000006     49.367350000000002     46.519599999999997
C      45.649000000000001     49.356650000000002     48.108699999999999
C      46.700300000000006     49.978449999999995     47.322099999999999
H      48.989300000000007     45.554450000000003     47.362699999999997
H      49.282300000000006     44.836150000000004     48.734200000000001
H      50.244500000000002     47.427549999999997     49.534199999999998
H      51.079499999999996     46.904150000000001     48.300400000000003
H      47.670300000000005     46.184349999999995     50.098799999999997
H      46.965400000000002     45.306449999999998     48.840600000000002
H      50.267000000000003     48.590850000000003     46.835400000000000
H      49.976800000000004     49.214550000000003     48.052900000000001
H      45.278700000000001     47.368049999999997     48.693399999999997
H      48.364600000000003     49.862549999999999     45.901200000000003
H      44.920500000000004     50.100250000000003     48.489800000000002
H      46.426300000000005     51.163849999999996     47.176200000000001
