5

C      48.503449999999994     48.467900000000000     48.395049999999991
C      47.240549999999999     48.123200000000011     47.964950000000002
H      46.562349999999995     48.070900000000009     48.699150000000003
H      47.172150000000002     47.532100000000000     46.993949999999998
O      49.437650000000005     48.421700000000001     49.006050000000002
