6

C      48.009799999999984     48.896849999999986     47.943149999999989
C      47.884200000000007     47.541249999999998     48.100749999999998
H      47.776499999999999     49.335450000000002     48.954850000000000
H      48.542199999999994     49.256549999999997     46.797750000000001
H      47.457800000000006     47.548549999999999     49.202249999999999
H      47.936499999999995     46.664549999999998     47.585249999999995
