46

C      47.636749999999985     46.937549999999987     46.839499999999994
C      45.762049999999995     48.502949999999991     48.138300000000001
C      48.799449999999993     48.323850000000000     50.013800000000003
C      49.816449999999989     48.572749999999992     45.713000000000001
C      45.383249999999997     48.038549999999994     49.435800000000000
C      47.681149999999995     49.353749999999998     50.325699999999998
C      46.211449999999992     49.318049999999992     49.775000000000006
C      48.543649999999985     49.271149999999999     49.072299999999998
C      49.423149999999993     49.382749999999994     47.019400000000005
C      49.097949999999997     47.705549999999995     44.648899999999998
C      48.263549999999995     46.573149999999991     45.316299999999998
C      46.356349999999992     47.761049999999990     47.066999999999993
C      50.749549999999999     49.011049999999997     46.519100000000002
C      48.561049999999994     50.172949999999993     47.874300000000005
C      49.664149999999992     46.120849999999997     45.027600000000000
C      45.382649999999991     46.568549999999995     49.596999999999994
C      45.660549999999994     45.664049999999996     48.403999999999996
C      46.145549999999993     46.268650000000001     46.815700000000000
C      43.908149999999992     46.065249999999999     49.843299999999999
C      47.862249999999996     50.240049999999997     51.355300000000000
C      48.455849999999998     45.104949999999995     45.370100000000001
C      52.224749999999993     49.148549999999993     46.962900000000005
C      45.551449999999996     48.783149999999999     46.648800000000001
H      49.683949999999996     47.644749999999995     49.795699999999997
H      45.497149999999991     49.956550000000000     50.301699999999997
H      48.827349999999996     50.775349999999996     51.299599999999998
H      47.635049999999993     50.333250000000000     47.356899999999996
H      48.214349999999996     51.387250000000002     48.219499999999996
H      50.517449999999997     45.952149999999996     45.769599999999997
H      46.043949999999995     46.332149999999992     50.405200000000001
H      44.567949999999996     44.988250000000001     48.106800000000007
H      46.333849999999991     44.876149999999996     48.534000000000006
H      45.719449999999995     45.815149999999996     45.872399999999999
H      43.798449999999995     45.044949999999993     50.495000000000005
H      43.311949999999996     45.782549999999993     48.965099999999993
H      42.955349999999996     46.540050000000001     50.329599999999999
H      46.831449999999997     50.547949999999993     51.389799999999994
H      47.795349999999992     50.027349999999991     52.363900000000001
H      48.842149999999997     47.796550000000003     43.636099999999999
H      48.109250000000003     44.647249999999993     44.576599999999999
H      48.517349999999993     44.612749999999998     46.367599999999996
H      52.158149999999992     50.291949999999993     47.318699999999993
H      52.512549999999997     48.372749999999996     47.668300000000002
H      53.044650000000004     48.736249999999991     46.336799999999997
H      44.561549999999997     48.902349999999991     46.183000000000000
H      48.249849999999995     47.033750000000005     47.788899999999998
