22

C      48.445549999999997     46.713049999999996     50.274599999999992
C      46.718549999999993     48.700450000000004     47.157100000000000
C      49.005949999999999     47.951449999999994     49.457999999999998
C      47.021150000000006     49.461649999999992     48.349199999999996
C      49.397750000000002     47.985749999999996     47.945300000000003
C      48.033749999999998     49.167549999999991     49.332800000000006
C      49.146249999999995     47.139749999999992     46.754800000000003
C      49.850449999999995     49.214649999999992     47.461100000000002
C      49.597849999999994     47.772750000000002     45.523399999999995
C      49.905050000000003     49.093149999999994     46.004099999999994
H      48.775450000000006     47.101149999999990     51.518600000000006
H      47.289349999999999     46.501649999999998     50.390400000000000
H      47.418049999999994     47.934749999999994     46.800200000000004
H      45.679550000000006     48.890050000000002     46.878600000000006
H      48.676050000000004     45.594350000000006     50.205299999999994
H      49.671149999999997     48.257149999999996     50.215999999999994
H      47.717050000000000     49.706649999999996     50.192099999999996
H      46.643950000000004     50.405649999999994     48.799300000000002
H      48.884450000000001     46.207149999999999     46.756500000000003
H      49.995149999999995     50.106750000000005     47.976500000000001
H      49.387349999999998     47.577449999999999     44.481399999999994
H      50.320449999999994     49.913150000000002     45.449600000000004
