36

C      50.997299999999996     44.900499999999994     47.307249999999989
C      48.422199999999997     44.228699999999996     47.521450000000002
C      48.218700000000005     45.935699999999990     47.501050000000006
C      49.595300000000002     44.771099999999997     46.923349999999999
C      49.197700000000005     45.032199999999996     45.532350000000001
C      48.191200000000002     46.765999999999998     49.003850000000000
C      47.925599999999996     45.682300000000005     45.306550000000001
C      47.423899999999996     46.476599999999998     46.432749999999999
C      46.646999999999998     50.517999999999994     45.822849999999995
C      45.600299999999997     50.036799999999999     46.711549999999995
C      47.616499999999995     48.220300000000002     48.470550000000003
C      44.607400000000005     49.319400000000009     47.065750000000001
C      47.462300000000006     49.141299999999994     49.255949999999999
C      47.035500000000006     50.478900000000003     48.623750000000001
C      47.801800000000007     49.339300000000001     50.656049999999993
C      46.298099999999998     51.102100000000000     47.455149999999989
C      47.962700000000005     50.807700000000004     50.888249999999999
C      47.288699999999999     51.395600000000002     49.725949999999997
H      51.786600000000000     45.439799999999998     46.820250000000001
H      51.327199999999998     44.369199999999999     48.276849999999996
H      47.822800000000008     43.635799999999996     46.868249999999996
H      48.406799999999997     44.264099999999999     48.631549999999990
H      49.976999999999997     44.974100000000000     44.661249999999995
H      47.360700000000001     46.413499999999992     49.491450000000000
H      47.640800000000006     45.848999999999997     44.190550000000002
H      46.560099999999998     47.041300000000000     46.491549999999997
H      46.263799999999996     50.974399999999996     44.841850000000001
H      47.555900000000001     49.919399999999989     45.786749999999998
H      48.912600000000005     45.988999999999997     49.394549999999995
H      47.576299999999996     48.409599999999998     47.376049999999999
H      44.213400000000000     49.397500000000001     48.153250000000000
H      44.264500000000005     48.407199999999996     46.507249999999999
H      47.802600000000005     48.473599999999998     51.356949999999998
H      46.023599999999995     52.176200000000001     47.529150000000001
H      48.305500000000002     51.297000000000004     51.809449999999998
H      47.125000000000007     52.364200000000004     49.528850000000006
