23

C      48.463649999999994     46.850650000000002     47.408049999999989
C      46.157250000000005     47.803750000000001     45.745950000000008
C      47.516750000000002     48.588349999999998     45.605850000000004
C      46.011450000000011     47.711750000000002     47.373850000000004
C      48.757750000000001     48.278550000000003     46.358950000000007
C      47.312550000000002     47.677849999999999     48.160750000000007
C      48.848650000000006     48.200949999999999     47.822249999999997
C      47.337350000000001     48.010750000000009     49.636150000000001
C      50.019850000000005     48.770750000000000     48.453250000000011
C      48.390750000000011     48.737150000000007     50.366250000000008
C      49.643349999999998     49.059150000000010     49.788750000000007
H      49.395850000000010     46.470250000000000     48.137250000000009
H      45.199449999999999     48.292050000000010     45.313950000000006
H      46.428250000000006     46.767350000000000     45.371449999999996
H      47.104250000000008     49.529750000000000     45.762050000000002
H      47.776949999999999     48.738450000000007     44.557450000000003
H      45.352950000000007     48.647250000000007     47.702250000000006
H      45.355050000000006     46.942850000000000     47.609850000000009
H      49.737150000000000     48.612550000000006     45.822950000000006
H      46.380350000000007     47.829050000000002     50.208350000000010
H      50.800550000000001     49.036149999999999     47.551850000000002
H      48.023050000000012     48.952150000000010     51.442549999999997
H      50.616750000000010     49.439150000000005     50.395449999999997
