6

C      48.474699999999991     47.550274999999985     47.634699999999988
C      48.167200000000001     48.363985000000000     48.725700000000003
H      48.102000000000004     46.560724999999991     47.613799999999998
H      48.120800000000003     48.053604999999990     46.663200000000003
H      48.595399999999998     49.439275000000009     48.843999999999994
H      47.404600000000002     47.950494999999989     49.336799999999997
