22

C      49.788699999999992     47.691749999999992     49.767049999999990
C      48.566700000000004     47.957849999999993     50.688249999999996
C      49.118900000000004     46.838850000000001     48.408950000000004
C      47.320799999999998     48.807450000000003     49.707450000000009
C      47.953600000000002     47.694150000000008     47.647250000000000
C      47.196599999999997     48.633650000000003     48.312650000000005
C      47.467099999999995     47.364550000000001     46.325050000000005
C      46.189000000000000     49.370549999999994     47.557850000000002
C      46.687400000000004     48.096050000000005     45.394649999999999
C      45.918799999999997     49.007550000000002     46.199350000000010
H      50.690700000000000     47.150849999999998     50.139250000000004
H      50.279400000000003     48.476749999999996     49.435650000000010
H      48.773000000000003     48.218350000000001     51.684950000000001
H      48.250799999999998     47.076450000000001     50.884950000000003
H      49.704000000000001     46.351350000000004     47.697050000000004
H      48.477499999999999     45.950249999999997     48.826850000000007
H      46.354599999999998     48.610349999999997     50.087249999999997
H      47.687300000000000     49.868150000000000     49.821050000000000
H      48.036799999999999     46.510849999999998     45.967750000000009
H      45.449199999999998     50.049750000000003     48.027050000000003
H      46.673099999999998     47.855350000000001     44.315049999999999
H      45.309300000000000     49.659050000000008     45.573350000000005
