6

C      47.875199999999992     48.518749999999990     48.436949999999996
C      47.875599999999999     47.400450000000006     47.514749999999999
H      48.453299999999992     48.390150000000006     49.414049999999996
H      47.432799999999993     49.405349999999999     48.327550000000009
H      48.567200000000007     46.594650000000001     47.747549999999997
H      47.480099999999993     47.301950000000005     46.585950000000004
