5

C      47.883204999999990     47.970649999999992     48.106899999999982
H      48.156725000000002     46.960050000000003     48.198499999999996
H      47.171394999999997     47.894749999999995     47.479599999999991
H      48.828605000000003     48.421749999999996     47.640500000000003
H      47.476675000000000     49.039949999999997     48.520400000000009
