49

C      49.309099999999994     49.862249999999996     48.375199999999992
C      48.500399999999999     51.034149999999997     48.761200000000002
C      47.626000000000005     48.096649999999997     45.489000000000004
C      46.239600000000003     48.040149999999997     44.898200000000003
C      48.970700000000001     48.964050000000000     47.282700000000006
C      47.091600000000000     50.942149999999998     48.277400000000000
C      50.067300000000003     47.018850000000000     46.003900000000002
C      45.591099999999997     49.630349999999993     46.731799999999993
C      47.748899999999999     49.061849999999993     46.650800000000004
C      46.842600000000004     49.840350000000001     47.346900000000005
C      50.540500000000009     49.843949999999992     49.219899999999996
C      50.941400000000002     50.701350000000005     50.473699999999994
C      49.969900000000003     51.786249999999995     50.543700000000001
C      48.724299999999999     52.001649999999998     49.928200000000004
C      48.773099999999999     47.170949999999998     45.253500000000003
C      45.745199999999997     44.274549999999998     44.344800000000006
C      46.289200000000001     45.667850000000001     44.511400000000009
C      45.294300000000000     49.007549999999995     45.429999999999993
C      51.171700000000001     48.532749999999993     49.266099999999994
C      52.460400000000007     48.936949999999996     51.638300000000001
C      52.041399999999996     48.203050000000005     50.373400000000004
C      51.727800000000002     50.065650000000005     51.585499999999996
C      49.998999999999995     47.878050000000002     46.968199999999996
C      51.375600000000006     47.714349999999996     47.900800000000004
C      46.192200000000000     43.204149999999998     45.173199999999994
C      51.290400000000005     45.968849999999996     45.584999999999994
C      45.789100000000005     46.871749999999999     44.030600000000007
C      43.736899999999999     48.393850000000000     45.728999999999999
H      46.426200000000001     51.794849999999997     48.391999999999996
H      44.882400000000004     50.497649999999993     47.178100000000001
H      50.064700000000002     52.257149999999996     51.517700000000005
H      47.905200000000001     52.795850000000002     50.056500000000000
H      48.882700000000000     46.263550000000002     44.680000000000007
H      45.220600000000005     44.034849999999999     43.418900000000008
H      45.128200000000000     49.715350000000001     44.644500000000008
H      53.270600000000002     48.496849999999995     52.581099999999992
H      52.302300000000002     47.065049999999999     50.383099999999999
H      51.659999999999997     50.920950000000005     52.410399999999996
H      50.783699999999996     45.217349999999996     44.982699999999994
H      52.308099999999996     47.292049999999996     47.429900000000004
H      51.221800000000002     46.704250000000002     48.350799999999992
H      52.278900000000000     46.408349999999999     45.385300000000001
H      51.572500000000005     45.375149999999998     46.598799999999997
H      43.214700000000001     48.680449999999993     46.538499999999999
H      47.338400000000000     45.713949999999997     44.934500000000000
H      42.729399999999998     48.792550000000006     45.244799999999998
H      43.604900000000001     47.244050000000001     45.889799999999994
H      44.823999999999998     46.699950000000001     43.508700000000005
O      45.756700000000002     43.442650000000000     46.216399999999993
