22

C      47.042949999999998     45.815449999999991     47.863514999999992
C      48.278450000000007     45.628349999999998     47.121705000000006
C      46.418450000000007     47.416550000000001     47.987284999999993
C      49.460450000000009     46.592449999999999     47.490895000000002
C      47.563249999999996     48.398349999999994     48.368034999999999
C      48.852550000000008     47.900450000000006     48.234995000000005
C      47.218350000000001     49.603750000000005     49.094205000000009
C      49.833350000000010     49.003850000000000     48.303744999999999
C      48.296350000000004     50.496549999999999     49.373425000000005
C      49.593850000000003     50.303749999999994     48.719855000000003
H      46.893550000000005     45.357950000000002     48.916935000000002
H      46.271950000000004     45.245149999999995     47.436585000000001
H      48.155550000000005     45.895849999999996     45.965195000000001
H      48.577050000000007     44.578749999999999     47.172245000000004
H      45.940850000000005     47.615849999999995     47.055855000000001
H      45.407150000000001     47.546149999999997     48.423255000000005
H      50.218550000000008     46.612949999999998     46.701155000000000
H      50.158850000000001     46.486350000000002     48.183995000000003
H      46.130750000000006     49.375850000000000     49.380415000000006
H      50.592849999999999     48.774550000000005     47.711635000000001
H      48.318750000000009     51.421250000000001     50.034804999999999
H      50.386250000000004     51.023049999999998     48.784065000000005
