5

C      48.039299999999997     48.113949999999988     48.208399999999997
H      47.264700000000005     48.504549999999981     48.847499999999997
H      47.736000000000004     48.269649999999984     47.152500000000003
H      48.735299999999995     48.886949999999999     48.342699999999994
H      48.384399999999999     47.113050000000001     48.152500000000003
