66

C      45.693999999999996     51.906499999999987     46.401144999999993
C      47.115200000000002     47.233099999999993     45.016925000000001
C      49.808300000000003     46.326599999999999     51.468114999999997
C      46.880499999999998     48.407399999999996     46.141684999999995
C      48.991000000000000     47.447999999999993     51.112564999999996
C      47.308100000000010     45.719799999999992     45.419400999999993
C      49.658900000000003     45.066900000000004     50.653025000000000
C      46.995900000000006     47.892499999999998     47.439484999999991
C      48.089700000000001     47.569599999999994     49.989644999999996
C      48.374200000000002     44.182499999999990     47.135624999999990
C      49.160899999999998     44.161699999999996     48.392955000000001
C      47.891800000000003     45.500699999999995     46.722504999999998
C      49.102500000000006     45.233199999999997     49.370574999999995
C      47.671100000000003     46.574100000000001     47.784315000000007
C      48.113300000000010     46.337299999999999     49.040944999999994
C      46.622300000000010     48.760300000000001     48.647134999999999
C      47.305100000000003     48.691699999999997     49.869765000000001
C      47.610600000000005     47.805700000000002     43.693525000000022
C      48.744100000000003     48.947800000000001     43.235825000000006
C      47.391199999999998     49.758299999999991     43.025924999999987
C      46.317800000000005     49.742300000000000     45.610583999999996
C      46.030299999999997     50.400899999999993     46.796794999999989
C      46.049899999999994     50.055899999999994     48.252244999999995
C      50.448800000000006     46.618399999999994     52.824674999999999
C      50.431300000000007     47.965000000000003     53.497135000000000
C      49.707300000000004     49.177399999999992     53.130565000000004
C      49.023899999999998     48.730199999999996     51.898505000000000
C      48.660700000000006     49.991299999999995     51.289914999999993
C      47.518500000000003     50.065199999999990     50.318534999999997
C      45.350900000000003     51.180399999999992     49.078114999999997
C      46.740499999999997     51.381999999999991     50.044235000000000
C      47.754400000000004     44.848100000000002     44.229325000000010
C      47.821300000000001     45.535600000000002     42.799425000000014
C      47.212299999999999     46.974800000000002     42.470825000000019
C      47.284300000000002     51.256500000000003     43.018124999999984
C      46.271700000000010     47.671399999999991     43.646725000000004
C      46.303899999999999     44.651600000000002     44.892025000000011
C      46.319200000000009     50.304800000000000     44.139325000000007
C      50.111800000000002     43.636699999999990     50.800804999999997
H      44.811199999999999     52.139299999999992     46.846514999999997
H      45.719400000000007     51.936599999999999     45.294953999999997
H      48.218699999999998     43.265599999999992     46.568954999999988
H      49.627899999999997     43.103600000000000     48.420555000000007
H      49.162000000000006     48.847300000000004     42.184424999999997
H      51.107399999999998     45.765299999999996     52.772614999999988
H      51.188800000000001     48.106099999999998     54.505674999999997
H      49.779200000000003     49.959299999999999     53.744564999999994
H      48.880800000000001     50.717799999999997     51.948934999999999
H      44.821200000000005     50.699199999999990     49.776775000000001
H      44.932900000000004     52.129199999999997     48.570755000000005
H      47.702700000000007     51.835799999999992     49.294195000000002
H      46.222300000000004     51.965599999999995     50.786564999999996
H      48.430300000000003     43.960700000000003     44.380025000000003
H      47.701700000000002     44.789099999999991     42.058325000000011
H      48.964700000000008     45.415499999999994     42.512524999999997
H      47.356600000000000     47.543599999999998     41.494325000000003
H      45.291800000000002     45.047299999999993     44.262825000000014
H      45.123900000000006     47.516199999999998     43.833925000000015
H      45.989500000000007     44.244399999999999     45.921073999999997
H      46.906800000000004     49.357500000000002     42.148625000000003
H      45.380099999999999     49.891700000000000     43.678925000000007
H      50.723100000000002     43.266399999999990     51.788595000000001
H      50.666899999999998     43.012000000000000     49.993465000000000
H      49.478800000000007     49.182699999999997     43.952525000000009
H      46.291300000000007     52.988000000000000     46.610465000000005
O      47.785400000000003     52.308199999999999     43.164524999999983
