5

C      47.995146999999989     47.933549999999983     47.837899999999991
H      47.282094999999998     48.040449999999993     47.075299999999999
H      47.670502999999997     47.556150000000002     48.924700000000001
H      48.566485000000000     48.919750000000008     47.867600000000010
H      48.717905000000002     47.080249999999992     47.497799999999998
