32

C      47.408999999999985     50.218399999999988     46.728484999999992
C      46.048999999999992     50.333299999999994     46.136984999999996
C      49.656199999999998     46.511499999999998     46.427485000000004
C      49.405199999999994     46.952299999999994     47.735984999999999
C      45.607600000000005     48.928600000000003     45.933634999999995
C      49.241199999999992     48.193200000000004     46.917185000000003
C      46.290499999999994     46.626400000000004     46.336384999999993
C      47.904200000000003     48.840900000000005     46.653684999999996
C      46.691800000000001     48.007099999999994     46.287785000000000
C      49.906400000000005     46.546999999999997     49.169785000000005
C      48.420599999999993     46.251500000000007     48.768484999999998
C      50.381699999999995     49.451400000000007     47.011285000000001
C      47.181200000000004     45.572199999999995     46.540885000000003
C      48.474699999999999     45.432699999999997     46.306385000000006
C      50.297499999999999     48.100999999999999     49.699584999999999
H      47.728300000000004     51.203100000000006     47.131385000000009
H      45.496499999999997     51.359700000000004     46.310784999999996
H      50.715999999999994     46.467500000000001     46.160184999999998
H      44.435800000000000     48.617800000000003     45.847785000000002
H      50.695300000000003     45.877399999999994     49.365885000000006
H      47.730800000000002     45.194299999999998     48.557185000000004
H      47.878000000000000     47.018500000000003     49.183085000000005
H      49.983899999999991     50.328700000000012     47.838385000000002
H      51.564200000000000     49.250000000000000     46.683885000000004
H      46.729299999999995     44.640299999999996     46.865785000000002
H      48.992899999999992     44.782399999999996     46.900684999999996
H      45.282499999999999     46.311199999999999     45.904605000000004
H      50.291799999999995     48.650300000000001     48.678985000000011
H      51.244799999999998     48.048100000000005     50.495585000000005
H      49.825800000000001     48.341200000000001     50.720685000000003
H      48.527799999999999     45.149900000000002     45.279314999999997
H      50.160799999999995     50.033100000000005     46.018524999999997
