22

C      48.305759999999992     45.291049999999998     48.001999999999995
C      46.952539999999999     45.741450000000000     48.389899999999997
C      48.789369999999998     46.427149999999997     47.300899999999999
C      47.023090000000003     47.216750000000005     49.305899999999994
C      48.305100000000003     47.852350000000001     47.386799999999994
C      47.262720000000002     48.354550000000003     48.290599999999998
C      48.953189999999999     48.938449999999989     46.716899999999995
C      46.887670000000000     49.726550000000003     48.479100000000003
C      48.510209999999994     50.280349999999999     46.548100000000005
C      47.391590000000001     50.592950000000002     47.321600000000004
H      48.047069999999998     44.437550000000002     47.284899999999993
H      48.760169999999995     44.999549999999999     49.120300000000000
H      46.436180000000000     45.006050000000002     48.841600000000000
H      46.088130000000000     45.735349999999997     47.646999999999991
H      49.751860000000001     46.472049999999996     47.744699999999995
H      48.973809999999993     46.157049999999998     46.323200000000000
H      46.125889999999998     47.362150000000000     50.033199999999994
H      47.933010000000003     47.332850000000008     50.079499999999996
H      49.954799999999999     48.641050000000007     46.237399999999994
H      46.045200000000001     50.220349999999996     49.088200000000001
H      48.890309999999992     51.083449999999999     45.920500000000004
H      47.011700000000005     51.562449999999998     47.132099999999994
