8

C      48.184499999999993     47.321750000000002     48.272699999999993
C      48.037700000000001     48.875450000000001     47.368600000000001
H      48.821500000000000     47.758550000000000     49.206299999999999
H      48.972700000000003     49.322150000000008     46.922200000000004
H      47.027299999999997     48.637750000000011     46.793700000000001
H      48.687200000000004     46.443950000000001     47.805700000000002
H      47.786299999999997     49.556049999999999     48.158099999999997
H      47.264400000000002     46.546250000000001     48.317999999999998
