22

C      50.047389999999993     49.942314999999994     48.123899999999992
C      50.546990000000001     48.548495000000003     48.545299999999997
C      49.022590000000001     49.508144999999999     47.055999999999997
C      49.767189999999999     47.223174999999998     48.100600000000000
C      47.914389999999997     48.405095000000003     47.140299999999996
C      48.178689999999996     47.120095000000006     47.718000000000004
C      46.467689999999997     48.553094999999999     46.973200000000006
C      47.226089999999999     46.075955000000008     48.018000000000001
C      45.417740000000002     47.494605000000007     47.245300000000000
C      45.865530000000000     46.178105000000002     47.467299999999994
H      50.373290000000004     50.958785000000006     47.781599999999997
H      49.444490000000002     50.047844999999995     49.028700000000001
H      51.518490000000000     48.644315000000006     49.191199999999995
H      50.232689999999998     48.258775000000000     49.593800000000002
H      48.780389999999997     50.375785000000008     46.496600000000001
H      49.782689999999995     49.068764999999999     46.406199999999998
H      50.367089999999997     46.502615000000006     47.589500000000001
H      49.789790000000004     47.106684999999999     49.234600000000015
H      46.128219999999999     49.457364999999996     46.519800000000004
H      47.571890000000003     45.041214999999994     48.427800000000005
H      44.481510000000000     47.445054999999996     46.834699999999998
H      45.158909999999999     45.296324999999996     47.446899999999999
