22

C      47.898654999999991     47.709899999999998     50.365999999999993
C      46.926244999999994     48.769400000000005     50.113199999999999
C      49.285195000000002     47.627300000000005     49.791999999999994
C      47.420855000000003     49.398899999999998     48.574099999999994
C      48.988084999999998     47.477199999999996     48.104699999999994
C      48.280794999999998     48.540099999999995     47.507599999999996
C      49.420445000000001     46.530500000000004     47.013599999999997
C      48.317584999999994     48.921700000000001     46.137400000000000
C      49.401645000000002     46.858599999999996     45.592399999999998
C      48.926945000000003     48.089699999999993     44.958999999999996
H      47.521055000000004     47.872699999999995     51.807800000000000
H      47.507504999999995     46.643500000000003     50.772900000000007
H      46.627115000000003     49.716700000000003     50.923299999999998
H      45.979304999999997     48.456299999999999     50.085999999999999
H      49.595574999999997     46.781000000000006     50.367499999999993
H      49.880175000000008     48.590000000000003     50.007299999999994
H      46.511934999999994     49.302899999999994     48.129899999999999
H      47.723484999999997     50.418999999999997     48.570299999999996
H      50.020695000000003     45.581000000000003     47.297300000000000
H      47.972935000000007     49.826499999999996     45.866399999999999
H      49.646664999999999     46.379499999999993     44.642299999999999
H      49.412675000000007     48.658699999999996     44.192200000000000
