22

C      47.129549999999995     47.626249999999992     45.528349999999996
C      46.913249999999991     46.441450000000003     46.606450000000002
C      47.713849999999994     48.891649999999998     46.353750000000005
C      46.354349999999997     46.758449999999996     47.888249999999999
C      48.201449999999994     48.689149999999998     47.785950000000000
C      47.558649999999986     47.591549999999998     48.413850000000011
C      49.162349999999989     49.390649999999994     48.441950000000006
C      48.341149999999999     47.299250000000001     49.682550000000006
C      49.783749999999998     49.321250000000006     49.850750000000005
C      49.266249999999999     48.151150000000001     50.339650000000006
H      48.188249999999996     47.532650000000004     44.933750000000003
H      46.313449999999989     47.861549999999994     44.773550000000000
H      46.070749999999990     45.934950000000001     46.120150000000010
H      47.919950000000000     46.032650000000004     46.674350000000004
H      47.159549999999996     49.775850000000005     46.013150000000003
H      48.675949999999986     48.641350000000003     45.946449999999999
H      45.996150000000000     45.773550000000000     48.545450000000002
H      45.336449999999999     47.272449999999999     47.902450000000002
H      49.551849999999988     50.226450000000000     47.912950000000009
H      48.292850000000001     46.103250000000003     49.736150000000002
H      50.663550000000001     49.741150000000005     50.026450000000004
H      49.573849999999993     47.761049999999997     51.226450000000000
