6

C      47.272649999999985     48.007849999999991     47.917349999999999
C      48.654250000000005     48.029450000000011     47.785750000000000
H      46.678049999999999     47.056449999999998     47.770450000000004
H      46.656049999999993     48.943550000000002     48.491549999999997
H      49.296049999999994     47.170550000000006     47.508450000000003
H      49.343950000000007     48.827750000000009     47.924050000000001
