15

C      48.488349999999997     49.261099999999992     49.450599999999994
C      49.410150000000009     48.370699999999999     50.139300000000006
C      47.845549999999996     46.551100000000005     49.843300000000013
C      47.235450000000007     47.986199999999997     47.618099999999998
C      47.063949999999998     47.316000000000003     48.853899999999996
C      49.095850000000006     46.968299999999999     50.391600000000011
C      46.718550000000000     48.283000000000001     46.170900000000003
C      47.388950000000001     48.493300000000005     48.917299999999997
H      48.522749999999995     50.438500000000005     49.612400000000008
H      47.345450000000007     45.561499999999995     49.898099999999999
H      50.371249999999996     48.506299999999996     50.586200000000005
H      49.876349999999995     46.236300000000000     50.629800000000003
H      45.628750000000004     48.577200000000005     46.396400000000000
H      47.105950000000000     48.897000000000006     45.370199999999997
H      46.550149999999995     47.343900000000005     45.515000000000001
