78

C      48.906899999999993     48.084149999999994     53.286999999999992
C      48.864073999999995     46.969650000000001     52.529299999999999
C      47.998317000000000     49.181950000000001     53.161099999999998
C      48.232896999999994     50.621250000000003     53.318900000000006
C      48.258382999999995     46.017150000000001     46.137899999999995
C      49.282750000000000     46.323949999999996     47.160299999999999
C      45.786719999999995     50.197450000000003     47.265099999999997
C      46.793319999999987     50.731249999999989     48.231999999999999
C      47.180520000000008     46.997349999999997     45.905899999999995
C      49.055230000000002     47.505250000000004     47.926899999999996
C      45.844820000000006     48.917649999999995     46.396499999999996
C      47.735520000000015     49.752949999999998     48.632199999999997
C      47.109120000000026     48.213449999999995     46.715199999999996
C      47.958005399999998     48.548450000000003     47.856099999999998
C      48.363289999999999     44.845649999999992     45.430099999999996
C      49.817779999999999     44.145550000000000     45.416399999999996
C      50.831959999999995     44.407849999999996     46.386099999999999
C      50.337740000000004     45.288449999999997     47.320000000000000
C      44.695119999999996     51.188850000000002     47.072499999999998
C      45.112320000000011     52.219949999999997     48.038599999999995
C      46.385820000000017     52.079649999999987     48.745799999999996
C      47.363920000000000     44.673149999999993     44.350400000000000
C      47.749619999999993     43.622850000000000     43.268000000000001
C      48.871547999999997     42.745949999999993     43.460200000000000
C      49.853910000000006     43.168049999999994     44.507799999999996
C      46.238819999999997     45.481949999999998     44.036699999999996
C      46.080320000000000     46.647350000000003     44.929400000000001
C      44.813119999999991     47.280450000000002     44.714199999999998
C      44.663620000000016     48.494550000000004     45.533099999999997
C      43.766320000000007     49.663449999999997     45.342700000000001
C      43.575719999999990     50.881149999999991     46.224499999999999
C      49.796759999999999     47.646649999999994     49.412499999999994
C      51.123269999999998     46.901749999999993     49.165299999999995
C      51.248399999999997     45.503249999999994     48.747199999999999
C      48.942979999999999     50.650249999999986     49.310299999999998
C      47.986591399999995     51.343450000000004     50.516599999999997
C      47.342620000000018     52.562349999999995     49.982900000000001
C      52.045960000000001     47.771450000000002     48.190199999999997
C      46.673519999999996     53.640049999999988     50.755899999999997
C      48.545662000000000     53.475949999999997     49.409299999999995
C      52.274710000000006     47.434950000000001     49.831699999999998
C      48.312424999999998     51.866950000000003     51.968100000000000
C      49.330729999999996     41.816049999999990     42.384799999999998
H      52.254989999999999     45.036450000000002     48.822499999999998
H      49.626369999999987     48.420349999999999     54.059099999999994
H      48.008146999999994     46.890050000000002     51.693599999999996
H      49.730290000000004     46.315550000000002     52.512400000000000
H      47.292720000000003     49.139349999999993     52.298299999999998
H      47.216320000000003     48.727949999999993     54.094899999999988
H      47.209319999999984     50.986549999999994     53.398299999999999
H      48.720853999999996     51.029749999999993     54.218499999999999
H      51.743339999999996     43.705150000000003     46.291300000000000
H      44.596920000000019     53.155749999999998     48.362299999999998
H      46.917320000000011     43.482649999999992     42.457000000000001
H      50.567069999999994     42.372550000000004     44.677699999999994
H      43.998519999999978     46.752849999999995     44.094000000000001
H      42.806220000000003     51.639550000000000     46.030999999999999
H      50.003920000000001     48.705449999999999     49.626700000000000
H      49.541249999999998     46.990449999999996     50.166300000000000
H      50.566730000000000     44.974350000000001     49.490899999999996
H      49.173729999999999     51.289649999999995     48.502600000000001
H      49.711030000000001     50.028350000000003     49.881399999999999
H      47.037219999999984     50.573349999999991     50.654499999999999
H      51.982080000000003     48.691549999999992     47.827799999999996
H      53.167139999999996     47.395949999999999     47.934300000000000
H      45.590020000000010     53.328249999999997     50.954400000000000
H      46.472519999999996     53.196849999999998     51.918799999999997
H      46.806120000000028     55.012749999999997     50.512499999999996
H      48.631762999999999     54.480149999999995     49.976199999999999
H      49.536310000000000     53.009850000000000     49.329699999999995
H      48.295911999999994     53.808049999999994     48.378799999999998
H      51.980029999999992     48.265349999999984     50.537299999999995
H      53.193779999999997     46.942549999999997     49.830999999999996
H      49.393659999999997     52.490949999999998     51.956399999999995
H      47.512020000000014     52.377349999999993     52.289800000000000
H      45.665320000000015     45.111549999999994     43.388700000000000
O      42.810620000000000     49.310450000000003     44.726700000000001
O      49.710299999999997     40.987250000000003     41.781500000000001
