80

C      45.124849999999988     46.783499999999989     47.037165000000002
C      46.338650000000001     47.795300000000005     46.702565000000007
C      43.541550000000001     47.195799999999998     41.056165000000007
C      43.839150000000004     47.416699999999999     42.462265000000002
C      44.725149999999999     46.045299999999997     45.798765000000003
C      46.003349999999998     48.881599999999999     45.546064999999999
C      44.057450000000003     46.382799999999996     43.377665000000007
C      44.298749999999998     48.660999999999994     43.420065000000008
C      44.728749999999991     46.639400000000002     44.580264999999997
C      45.026049999999998     48.166699999999999     44.613865000000004
C      44.481150000000000     44.517699999999998     45.341765000000009
C      43.327749999999995     44.119599999999998     44.611165000000000
C      43.763949999999994     44.825299999999999     43.177864999999997
C      46.638649999999998     50.150500000000001     45.593265000000002
C      46.040649999999999     50.878899999999994     42.634165000000010
C      44.728449999999995     50.077899999999993     42.499265000000008
C      45.661249999999995     46.033200000000001     48.397565000000000
C      45.608049999999992     46.922300000000000     49.682765000000003
C      44.883349999999993     48.265799999999992     49.135365000000007
C      45.062749999999994     48.069200000000002     47.545864999999992
C      44.367949999999993     43.639199999999995     46.562065000000004
C      47.845950000000002     47.616499999999995     47.361964999999998
C      42.954650000000001     49.386999999999993     44.209564999999998
C      50.437749999999994     49.598700000000001     49.940764999999999
C      51.722849999999994     49.834399999999995     49.485765000000001
C      52.236949999999993     49.255500000000005     48.390865000000005
C      51.439849999999993     48.667799999999993     47.303364999999999
C      50.089950000000002     48.478800000000000     47.695765000000009
C      49.638249999999999     48.906399999999998     48.983064999999996
C      49.120350000000002     48.110700000000001     46.679365000000004
C      51.393249999999995     52.699199999999998     55.153964999999999
C      49.950450000000004     49.735899999999994     51.370165000000000
C      50.998249999999999     50.274600000000000     52.427364999999995
C      51.976450000000000     51.727199999999996     54.191065000000009
C      52.135649999999998     49.288399999999996     52.554865000000007
C      50.810350000000000     51.440999999999995     53.237465000000000
C      53.312950000000001     49.740099999999991     53.526865000000001
C      53.142349999999993     50.867399999999996     54.443764999999999
C      45.972650000000002     51.156699999999994     44.792065000000008
H      45.353250000000003     44.178799999999995     44.804965000000010
H      42.336749999999995     44.328799999999994     45.185164999999998
H      43.411749999999998     43.037599999999998     44.461664999999996
H      42.753950000000003     44.743099999999998     42.551164999999997
H      44.662750000000003     44.261599999999994     42.725065000000001
H      47.232649999999992     50.663099999999993     46.494765000000001
H      46.469250000000002     51.122199999999999     41.501064999999997
H      46.563149999999993     50.059499999999993     43.116465000000005
H      43.905549999999991     50.806599999999996     42.635865000000010
H      44.537250000000000     49.318700000000000     41.586264999999997
H      45.390549999999990     44.900599999999997     48.338165000000004
H      46.788349999999994     45.774999999999999     47.976365000000001
H      46.610849999999999     46.854099999999995     49.956164999999999
H      44.881149999999991     47.071700000000000     50.759965000000008
H      45.526150000000001     48.985999999999997     49.313765000000004
H      43.894649999999999     48.552599999999998     49.576065000000000
H      44.275649999999999     48.638299999999994     47.064965000000001
H      45.233649999999997     42.978699999999996     46.591265000000007
H      43.416449999999998     42.696300000000001     46.544865000000001
H      43.831649999999996     44.436599999999999     47.331564999999998
H      47.938149999999993     46.559300000000000     47.751464999999996
H      47.611049999999992     48.247599999999998     48.180464999999998
H      41.915649999999999     49.448199999999993     43.657165000000006
H      42.831850000000003     50.496000000000002     44.239365000000006
H      43.198349999999991     48.594999999999992     45.075765000000004
H      52.498849999999990     50.451999999999998     49.963864999999998
H      53.362650000000002     49.673600000000000     48.094465000000000
H      51.980350000000001     48.236599999999996     46.380665000000008
H      48.586449999999999     48.992100000000001     48.902465000000007
H      49.650649999999999     47.203300000000006     45.993265000000008
H      48.810549999999992     48.927299999999995     46.179564999999997
H      51.309249999999992     53.303699999999999     56.037364999999994
H      49.255749999999992     50.587899999999998     51.586865000000003
H      49.512749999999997     48.925599999999996     51.694564999999997
H      52.527949999999990     48.501699999999992     51.901865000000001
H      49.838849999999994     52.002899999999990     53.303565000000006
H      54.084350000000001     49.138799999999996     54.079665000000006
H      53.877349999999993     51.338599999999992     55.571664999999996
H      50.430149999999998     52.777299999999990     54.643865000000005
O      43.380549999999999     46.874800000000000     39.962635000000006
O      45.855549999999994     51.892800000000001     43.875365000000002
