93

C      46.345599999999997     51.982459999999989     47.895184999999998
C      46.526560000000003     51.279259999999994     49.118135000000002
C      41.771631000000006     50.624159999999996     49.013535000000012
C      40.237949999999998     50.927959999999992     48.677905000000003
C      44.998480000000001     51.972259999999999     47.214103000000001
C      45.580740000000006     50.722859999999990     50.065435000000001
C      42.583883000000007     51.145059999999994     47.891545000000001
C      42.987380000000002     50.113659999999996     49.738105000000012
C      43.920960000000001     51.521459999999998     48.237204999999996
C      44.188830000000003     50.871959999999994     49.601725000000002
C      47.555970000000002     52.238659999999996     47.156771000000006
C      48.629300000000001     51.923059999999992     48.130305000000014
C      49.032020000000003     52.542959999999994     49.532145000000007
C      48.109530000000007     51.333359999999992     49.429285000000007
C      45.106230000000004     52.087560000000003     45.774825000000014
C      46.172930000000001     52.799359999999986     45.106325000000012
C      47.790279999999996     52.037859999999988     45.638325000000002
C      39.299150000000019     50.570359999999994     49.720025000000007
C      45.070260000000005     50.601759999999992     45.228424999999994
C      43.831890000000001     52.892559999999996     45.341325000000033
C      49.121040000000008     51.349159999999991     50.585325000000005
C      46.064100000000003     50.120559999999990     51.374815000000005
C      49.795600000000007     48.021579999999993     48.003375000000013
C      51.204720000000002     47.187739999999998     48.453205000000004
C      48.178630000000005     43.691249999999997     45.577824999999997
C      49.032790000000006     47.430419999999991     47.084893000000001
C      51.467569999999995     45.849839999999993     48.051714999999994
C      47.927700000000002     45.131979999999992     46.141625000000019
C      50.601400000000012     44.182689999999994     46.624086100000007
C      49.000280000000004     45.841509999999992     46.847678000000002
C      50.359319999999997     45.395829999999997     46.917364000000006
C      47.832899999999995     47.886369999999992     46.112724999999998
C      46.463820000000013     47.327469999999998     46.565925000000014
C      46.553790000000006     45.852349999999994     46.165025000000007
C      48.587720000000004     47.605179999999997     48.769115000000006
C      52.467550000000003     44.718779999999995     48.124305000000000
C      52.134050000000002     43.998449999999998     46.788316000000002
C      53.876750000000001     45.245819999999995     48.318905000000008
C      54.809350000000002     44.290079999999996     49.142975000000000
C      45.220600000000005     48.065359999999991     45.848425000000006
C      45.382700000000007     49.480259999999994     46.523325000000007
C      56.355750000000000     44.451279999999997     48.674485000000011
C      46.259030000000003     46.493869999999994     47.768225000000001
C      50.057800000000000     49.552559999999993     47.514892000000003
H      39.945650000000015     51.951459999999990     48.140105000000005
H      41.936651000000005     51.621959999999994     47.124749000000001
H      42.511742000000005     49.491159999999994     50.503965000000001
H      49.579460000000005     53.393459999999997     49.544495000000005
H      45.822840000000006     52.765159999999995     43.936624999999999
H      46.076060000000005     53.733960000000003     45.547925000000006
H      48.263830000000013     52.179759999999995     44.645725000000006
H      48.119930000000011     50.958259999999996     45.555425000000000
H      45.736010000000007     50.473359999999992     44.465724999999999
H      44.234050000000003     49.981259999999992     44.776125000000029
H      42.942790000000002     53.433659999999996     45.868525000000012
H      43.019140000000007     52.199059999999996     45.004924999999993
H      44.326820000000005     53.698759999999993     44.291525000000014
H      49.994540000000001     50.624359999999996     50.449385000000014
H      49.054870000000001     51.656659999999995     51.682495000000003
H      45.232400000000005     50.024959999999993     52.031145000000002
H      46.835040000000006     49.298259999999992     51.174585000000000
H      46.736510000000010     50.592959999999998     52.063375000000001
H      51.869349999999997     47.491329999999998     49.254445000000011
H      48.715460000000007     43.602909999999994     44.626925000000021
H      47.995040000000003     47.640929999999990     45.073925000000024
H      47.923520000000003     48.975459999999991     46.386825000000037
H      45.612670000000001     45.357059999999997     45.774525000000025
H      47.214890000000004     43.300089999999997     45.612725000000005
H      48.709040000000002     46.932629999999996     49.770365000000005
H      48.093680000000006     48.589759999999991     48.797675000000005
H      52.225450000000002     44.191239999999993     49.088325000000005
H      52.231449999999995     42.976119999999995     47.048242000000002
H      52.722149999999999     44.559579999999997     45.907124999999994
H      54.328850000000003     45.394399999999997     47.385358000000004
H      53.630450000000003     46.133159999999997     48.831264999999995
H      54.357650000000007     43.264989999999997     49.178035000000001
H      54.560250000000003     44.480949999999993     50.271035000000005
H      44.353670000000001     47.700549999999993     46.321525000000001
H      45.320950000000003     47.863699999999994     44.704025000000023
H      44.522510000000004     49.745059999999995     47.261248000000002
H      46.430960000000013     49.519059999999996     46.498325000000008
H      56.603850000000008     43.404769999999992     48.011265000000002
H      57.066850000000002     44.193189999999994     49.489844999999995
H      56.751850000000005     45.518299999999996     48.639765000000004
H      47.035520000000005     45.635439999999996     47.971035000000008
H      50.913190000000000     50.001259999999995     46.850601000000005
H      45.324080000000002     46.009559999999993     48.029485000000001
H      49.035110000000003     50.181859999999993     47.159006000000005
H      50.208280000000002     50.197459999999992     48.451345000000003
H      50.258370000000006     42.266039999999997     46.225625000000015
H      39.248949999999994     50.379159999999992     50.828675000000011
N      49.710270000000008     43.248939999999997     46.357125000000011
O      38.933149999999998     49.842159999999993     48.777795000000005
