22

C      48.314299999999989     45.770949999999992     48.485649999999993
C      48.411799999999992     46.023350000000001     46.854750000000003
C      48.157800000000002     47.027850000000001     49.572749999999999
C      49.469199999999994     47.198049999999995     46.625750000000004
C      48.089499999999994     48.328749999999999     48.756550000000011
C      48.822799999999994     48.308149999999998     47.551349999999999
C      47.514299999999999     49.591749999999990     49.230550000000001
C      48.833499999999994     49.523849999999996     46.679750000000006
C      46.861799999999995     50.228450000000009     48.166250000000005
C      47.653900000000000     50.321050000000000     46.855750000000000
H      49.142099999999992     45.006050000000002     48.683550000000004
H      47.494999999999997     44.975250000000003     48.808349999999997
H      47.391699999999993     46.490249999999989     46.370650000000005
H      48.449499999999993     45.043950000000002     46.390050000000002
H      48.931199999999997     47.091050000000010     50.391950000000001
H      47.238700000000001     47.049049999999994     50.166750000000000
H      50.152499999999996     46.692650000000000     47.311350000000004
H      49.552799999999998     47.517350000000008     45.608049999999999
H      47.148800000000001     49.222450000000002     50.129049999999999
H      49.383999999999993     49.498350000000002     45.765750000000004
H      45.847500000000004     50.964849999999998     48.288150000000002
H      47.323699999999995     51.024749999999997     46.088450000000002
