22

C      49.496099999999998     45.907799999999988     47.603149999999992
C      48.450200000000002     46.189899999999994     46.419849999999997
C      49.763000000000012     47.318799999999996     48.500650000000007
C      46.896100000000004     46.811999999999998     46.797849999999997
C      48.363400000000006     48.073599999999999     48.711250000000007
C      47.249000000000002     47.896299999999997     47.866150000000005
C      48.456600000000002     48.964399999999998     49.811949999999996
C      46.276500000000006     48.970600000000005     47.979150000000004
C      47.503400000000006     50.034499999999994     49.983750000000001
C      46.467700000000001     49.965900000000005     49.019850000000005
H      50.383100000000006     45.475200000000001     47.378450000000001
H      48.856000000000002     45.241299999999995     48.270350000000008
H      48.330300000000001     45.063299999999998     46.441749999999999
H      48.617600000000003     46.564899999999994     45.397549999999995
H      50.587899999999998     47.856399999999994     48.283249999999995
H      50.060300000000005     47.100999999999999     49.685249999999996
H      46.194200000000002     46.934399999999997     45.982150000000004
H      46.553300000000000     46.009199999999993     47.367450000000005
H      49.262700000000002     48.756900000000002     50.399450000000002
H      45.412100000000002     48.733900000000006     47.458650000000006
H      47.400300000000009     50.936700000000002     50.602450000000005
H      45.465500000000006     50.635400000000004     48.852850000000004
