22

C      48.276999999999987     49.400749999999995     45.805049999999987
C      49.725799999999992     48.936650000000000     46.408349999999999
C      47.215800000000002     48.164949999999997     46.268649999999994
C      49.687299999999993     48.538649999999997     48.002250000000004
C      47.225699999999989     47.743949999999998     47.757850000000005
C      48.410100000000000     47.987349999999999     48.548850000000002
C      46.222799999999992     46.761350000000000     48.162949999999995
C      48.634499999999989     47.203049999999998     49.738749999999996
C      46.183899999999994     46.441049999999997     49.558750000000003
C      47.453399999999988     46.540649999999999     50.249049999999997
H      48.405000000000001     49.809950000000001     44.728250000000003
H      47.915199999999999     50.405349999999999     46.327550000000002
H      50.224699999999999     49.760549999999995     45.995649999999998
H      50.028999999999996     47.905850000000001     45.927850000000007
H      47.669899999999998     47.496850000000002     45.483649999999997
H      46.148899999999998     48.225949999999997     45.824349999999995
H      50.558900000000008     47.803449999999998     48.039950000000005
H      50.096899999999991     49.209949999999999     48.691350000000000
H      45.441099999999992     46.506949999999996     47.430450000000008
H      49.409599999999998     47.592950000000002     50.537149999999997
H      45.593299999999999     45.594650000000001     50.007050000000007
H      47.719399999999993     46.126750000000001     51.271749999999997
