116

C      40.074433999999982     50.068519999999992     46.391799999999989
C      43.494134000000003     46.980700000000006     40.826900000000002
C      41.396193999999994     51.356429999999996     44.546200000000006
C      39.440933999999999     48.744070000000001     45.878400000000006
C      42.575304000000003     46.104540000000000     41.542000000000009
C      40.049523999999991     46.533120000000004     44.675699999999999
C      42.248094000000009     50.123120000000000     42.389900000000004
C      40.862774000000002     45.841900000000003     43.644799999999996
C      41.565883999999997     50.208890000000004     43.717400000000005
C      40.195204000000004     48.061820000000004     44.919800000000002
C      42.676443999999989     48.844650000000001     41.768599999999999
C      41.782843999999997     46.638020000000004     42.638700000000007
C      41.171673999999996     48.748240000000003     43.924300000000009
C      41.743594000000002     48.038730000000001     42.836999999999996
C      40.862173999999996     50.890610000000002     47.360500000000009
C      40.682403999999991     51.222609999999996     45.846499999999999
C      41.574284000000006     52.620800000000003     43.727499999999999
C      38.633343999999994     48.298860000000005     47.033400000000007
C      44.498933999999991     45.538080000000001     48.885799999999996
C      45.968564000000001     45.957380000000001     48.734500000000004
C      43.213833999999991     50.015210000000003     47.247300000000003
C      44.690724000000003     50.253620000000005     47.029400000000003
C      43.348413999999991     46.456900000000005     48.506599999999999
C      46.462753999999990     47.230530000000002     48.284300000000009
C      42.954664000000008     48.773920000000004     47.890400000000007
C      45.756034000000000     49.261440000000000     47.120899999999999
C      43.943793999999997     47.719320000000003     47.980399999999996
C      45.445604000000003     47.984070000000003     47.663000000000004
C      44.396084000000002     44.083914000000000     49.175000000000004
C      45.382964000000001     43.443550000000009     49.996900000000004
C      46.550333999999992     44.078891000000006     50.306500000000007
C      46.896984000000003     45.411730000000006     49.742200000000004
C      42.389873999999992     51.199360000000006     47.765300000000003
C      42.626813999999996     52.440030000000000     47.063700000000004
C      43.874623999999997     52.584920000000004     46.428300000000000
C      45.005353999999997     51.630310000000001     46.704700000000010
C      41.945154000000002     45.660070000000005     48.468499999999999
C      41.903833999999989     44.020442000000003     48.560800000000008
C      43.031353999999993     43.597761700000000     49.404500000000006
C      48.053504000000004     47.678220000000003     48.534799999999997
C      48.287204000000003     47.409900000000000     49.950700000000005
C      48.235203999999996     45.948590000000003     49.997199999999999
C      47.298444000000003     47.878610000000002     51.094000000000001
C      47.486884000000003     48.271930000000005     52.661000000000008
C      41.373363999999995     51.208870000000012     48.981200000000008
C      52.796803999999995     48.213560000000001     52.118900000000004
C      51.795203999999998     49.197910000000000     51.809800000000003
C      49.163204000000007     45.578900000000004     54.380400000000002
C      48.079703999999992     46.332420000000006     53.765099999999997
C      52.612904000000000     47.012930000000004     52.844699999999996
C      50.427703999999991     48.902030000000003     52.391399999999997
C      50.546903999999998     45.749130000000001     54.119000000000007
C      48.745103999999998     47.425890000000003     53.113300000000002
C      51.236803999999992     46.737030000000004     53.399300000000004
C      50.175904000000003     47.777960000000000     52.993100000000005
C      54.085104000000001     48.561030000000002     51.348900000000008
C      54.605903999999995     49.940260000000002     50.981500000000004
C      53.540703999999991     51.004680000000000     50.758299999999998
C      52.293003999999996     50.500090000000007     51.186100000000003
C      48.692403999999996     44.459401000000000     55.270500000000006
C      46.546334000000002     44.253635000000003     54.524400000000007
C      46.833343999999997     45.471090000000004     53.933799999999998
C      55.085504000000000     47.517590000000006     51.423999999999999
C      56.436604000000003     48.061090000000000     51.208800000000004
C      56.914704000000000     49.365200000000002     50.844900000000003
C      55.969303999999994     50.497390000000003     50.828899999999997
C      53.718603999999999     45.995200000000004     53.024999999999999
C      54.677003999999997     45.952690000000004     51.898699999999998
H      44.070444000000009     46.336220000000004     39.948299999999996
H      42.298323999999994     45.154780000000002     41.108399999999996
H      39.506813999999991     46.277390000000004     45.713900000000002
H      42.675553999999991     51.139120000000005     42.128800000000005
H      40.535623999999999     44.817290000000000     43.497700000000002
H      42.159263999999993     52.865569999999998     43.012400000000007
H      41.511774000000003     53.559930000000001     44.268499999999996
H      47.509583999999990     42.934750000000001     56.051700000000004
H      42.096993999999995     48.630410000000005     48.257700000000007
H      46.786544000000006     49.382230000000000     46.699500000000008
H      45.242883999999989     42.279649999999997     50.287600000000005
H      47.300094000000001     43.454550000000012     50.766100000000002
H      41.892564000000007     52.995440000000009     46.553000000000004
H      44.279563999999993     53.720350000000003     46.155600000000000
H      46.031523999999990     51.855340000000005     46.470100000000009
H      41.476523999999998     46.039080000000006     47.620600000000003
H      41.426243999999997     46.171430000000001     49.268400000000007
H      40.942183999999997     43.708018000000003     48.905099999999997
H      42.567313999999996     43.709864000000003     47.761400000000002
H      42.501484000000005     43.654603399999999     50.476500000000009
H      42.902363999999992     42.520250000000011     49.781500000000001
H      48.649603999999997     47.354710000000004     47.714199999999998
H      48.030903999999992     48.966790000000003     48.413500000000006
H      49.295903999999993     47.706120000000006     50.229100000000010
H      48.837704000000002     45.748210000000000     50.912399999999998
H      46.215754000000004     47.875760000000000     50.994800000000005
H      47.577724000000003     48.752659999999999     50.550199999999997
H      47.603963999999991     49.359050000000003     52.902800000000006
H      46.475353999999996     47.926600000000001     53.042600000000000
H      41.310884000000001     50.421919999999993     49.660500000000006
H      41.359573999999995     52.252550000000006     49.339400000000005
H      49.759404000000004     49.577360000000006     51.907600000000009
H      50.993803999999997     44.960660000000004     54.622000000000007
H      53.738904000000005     51.894849999999998     50.208800000000004
H      51.663203999999993     51.311159999999994     51.002100000000006
H      49.432304000000002     43.778338000000005     55.127699999999997
H      45.664913999999996     43.643688900000001     54.471100000000000
H      46.183233999999999     46.038920000000005     53.117300000000007
H      57.022604000000001     47.086739999999999     50.996100000000006
H      57.896904000000006     49.273389999999999     50.753999999999998
H      56.221803999999992     51.447230000000012     50.265200000000000
H      53.258203999999992     45.020200000000003     52.882500000000000
H      54.213604000000004     46.126090000000005     54.021900000000009
H      53.976804000000001     45.556270000000005     51.112299999999998
H      55.491703999999999     45.050710000000002     51.951000000000001
N      43.560113999999999     48.328320000000005     40.944899999999997
N      47.460443999999995     43.828944000000000     55.520299999999999
O      38.103095999999994     47.785760000000003     47.853800000000000
