18

C      46.912799999999990     50.410884999999993     48.693829999999991
C      48.443700000000000     47.329034999999998     50.299019999999999
C      47.524799999999999     49.485304999999997     47.743229999999997
C      48.094500000000004     48.161605000000002     47.769089999999998
C      48.553400000000003     47.097895000000001     48.800120000000000
C      48.401699999999998     47.602784999999997     46.427599999999998
C      49.023099999999992     45.843314999999997     48.427090000000000
C      48.943800000000003     46.401244999999996     45.922959999999996
C      49.225800000000000     45.567014999999998     47.021759999999993
H      46.318300000000001     51.272285000000004     48.424079999999996
H      47.688899999999997     48.022584999999999     50.637889999999992
H      47.317100000000003     50.391185000000000     49.591679999999990
H      49.196000000000005     47.227035000000001     51.133140000000004
H      47.503000000000000     49.456384999999997     46.626529999999995
H      48.269100000000002     48.301684999999999     45.582829999999994
H      49.588400000000000     44.975994999999998     48.835919999999994
H      49.110199999999999     46.212305000000001     44.866859999999996
H      49.681699999999999     44.727714999999996     46.528630000000000
