7

C      48.100549999999991     47.922899999999984     48.386249999999997
C      47.160950000000000     48.258800000000001     47.160750000000000
H      47.750649999999993     48.954000000000001     46.721150000000002
H      48.081450000000004     47.045999999999999     49.005850000000002
H      49.209850000000003     48.003300000000003     48.075950000000006
H      47.824349999999995     48.416099999999993     49.433650000000000
O      46.790149999999997     47.262799999999991     46.566350000000000
