22

C      46.553799999999995     47.723739999999992     45.858950000000000
C      46.425100000000000     47.813440000000014     47.414250000000010
C      47.088000000000001     49.959640000000007     48.563450000000003
C      45.962899999999998     49.189239999999998     47.604250000000008
C      47.897200000000005     48.708140000000000     49.182749999999999
C      47.503200000000000     47.488140000000001     48.395750000000007
C      48.924699999999994     48.604440000000011     50.143650000000008
C      48.045700000000004     46.132610000000000     48.632850000000005
C      49.834400000000002     47.464839999999995     50.245050000000006
C      49.083800000000004     46.273970000000006     49.701850000000007
H      47.524499999999996     47.050640000000001     45.631750000000011
H      46.203200000000002     46.832440000000005     45.278750000000002
H      45.644600000000004     47.192139999999995     47.560950000000005
H      46.638300000000008     48.619439999999997     45.297950000000007
H      46.826700000000002     50.685040000000001     49.368350000000007
H      47.843600000000002     50.482640000000004     48.005250000000004
H      45.829599999999999     49.778739999999999     46.747250000000008
H      45.062199999999997     49.042940000000002     48.063750000000013
H      49.117200000000004     49.525340000000014     50.688750000000013
H      47.316700000000004     45.314959999999999     48.327350000000010
H      50.937800000000003     47.421639999999996     50.721249999999998
H      49.407000000000004     45.380620000000008     50.460350000000005
