6

C      47.949499999999993     48.748899999999999     47.812199999999997
C      48.317700000000002     47.534999999999997     48.244299999999996
H      46.666600000000003     49.203600000000009     47.625200000000007
H      49.013999999999996     49.346199999999996     47.617300000000000
H      49.333399999999997     47.284300000000002     48.041899999999998
H      47.783199999999994     46.653800000000004     48.382700000000000
