22

C      47.735349999999983     45.588649999999994     48.739049999999992
C      48.144149999999989     46.958750000000009     49.564850000000000
C      48.641050000000000     45.644250000000000     47.500149999999998
C      48.655849999999994     46.750450000000001     46.488749999999989
C      48.098049999999994     48.041250000000005     47.245349999999995
C      47.701949999999989     48.163150000000002     48.642350000000000
C      47.753849999999993     49.240750000000006     46.433249999999994
C      47.408149999999999     49.405350000000013     49.317949999999989
C      47.045349999999992     50.403050000000007     47.065750000000001
C      47.130149999999993     50.513950000000008     48.514649999999996
H      47.746549999999992     44.707550000000012     49.474550000000001
H      46.658049999999996     45.510950000000008     48.279149999999994
H      48.055549999999990     47.289450000000002     50.708750000000002
H      49.291049999999991     47.027350000000013     49.295349999999992
H      48.075749999999992     44.505549999999999     47.128949999999996
H      49.635050000000000     45.420550000000006     47.960549999999991
H      47.903349999999996     46.513250000000014     45.686450000000001
H      49.488549999999996     47.023850000000010     45.934249999999999
H      47.662450000000000     48.832250000000002     45.291249999999998
H      47.419750000000001     49.821050000000000     50.315649999999998
H      46.364950000000000     51.070350000000005     46.799649999999993
H      46.872250000000001     51.494450000000001     49.075649999999989
