29

C      47.712699999999991     45.567749999999990     48.514399999999988
C      46.826799999999999     46.367950000000000     49.405799999999999
C      49.050799999999995     49.640449999999994     46.033199999999994
C      47.719399999999993     50.345549999999996     46.526799999999994
C      48.408799999999999     46.149849999999994     47.423000000000002
C      46.620800000000003     47.808150000000005     48.931799999999996
C      49.269000000000005     48.239550000000001     46.261200000000002
C      47.085899999999995     49.821149999999996     47.735799999999998
C      48.427599999999998     47.634350000000005     47.224099999999993
C      47.371099999999998     48.328449999999997     47.857999999999990
C      47.755799999999994     44.048250000000003     48.857999999999990
C      46.703000000000003     43.713950000000004     49.845399999999998
C      45.964199999999998     44.644050000000000     50.562199999999990
C      49.751800000000003     50.472950000000004     45.192799999999991
C      49.118200000000002     51.860549999999996     44.909599999999998
C      48.309300000000000     52.965949999999999     45.223699999999994
C      48.123800000000003     51.686150000000005     46.013499999999993
C      46.953099999999999     52.658949999999997     45.757899999999992
H      48.916100000000000     45.651249999999997     46.832399999999993
H      46.196700000000000     48.709650000000003     49.567200000000000
H      50.132700000000000     47.771549999999998     45.882399999999990
H      46.180599999999998     50.351350000000004     47.823899999999995
H      46.744799999999998     42.737749999999998     50.268400000000000
H      45.371200000000002     44.366049999999994     51.328699999999998
H      50.628799999999998     50.117749999999994     44.671300000000002
H      46.633899999999997     53.262250000000002     46.720100000000002
H      46.096599999999995     52.680850000000000     44.979299999999995
N      45.880099999999999     45.921050000000001     50.324299999999994
O      48.710599999999999     43.242650000000005     48.471899999999991
