43

C      46.887449999999994     48.499949999999998     46.566249999999997
C      47.628050000000002     48.697950000000013     45.073050000000002
C      49.033150000000006     45.152750000000005     46.541850000000004
C      48.374250000000004     47.297850000000004     44.886250000000004
C      47.509349999999998     47.322450000000011     47.345149999999997
C      47.936250000000001     46.271650000000001     46.190550000000009
C      46.681749999999994     46.625450000000008     48.311050000000002
C      46.575550000000007     45.732250000000001     45.582749999999997
C      45.737849999999995     45.704250000000009     47.851350000000004
C      45.474549999999994     45.345050000000008     46.414250000000003
C      49.907150000000001     50.834550000000000     46.671550000000003
C      48.686750000000004     47.887950000000011     48.104649999999999
C      50.565049999999999     49.956950000000013     47.872949999999996
C      48.332949999999997     49.119050000000009     48.966450000000002
C      49.613249999999994     49.827850000000005     49.012149999999998
C      47.156350000000003     49.302350000000011     49.860149999999997
C      49.602350000000001     50.727150000000002     50.182350000000007
C      47.383949999999999     50.145150000000008     51.002550000000006
C      48.636150000000001     50.909650000000006     51.225749999999998
H      49.580449999999999     45.494650000000000     47.441350000000007
H      45.892150000000001     47.953250000000004     46.631050000000009
H      47.222250000000003     49.483850000000011     47.211350000000003
H      46.863849999999999     48.649950000000011     44.325550000000000
H      48.154250000000005     49.649450000000009     44.870350000000002
H      49.624650000000003     45.317150000000005     45.622050000000009
H      48.513750000000002     44.058450000000001     46.455549999999995
H      47.940849999999998     46.830950000000009     43.742950000000000
H      49.417249999999996     47.256950000000010     44.913650000000004
H      46.764449999999997     46.788150000000009     49.475050000000003
H      46.888949999999994     45.731850000000001     44.609750000000005
H      45.213250000000002     44.943050000000007     48.435150000000000
H      44.532150000000001     44.949050000000007     45.884149999999998
H      48.694249999999997     50.635650000000005     46.697350000000007
H      49.793650000000000     51.941549999999999     46.820650000000008
H      50.243150000000000     50.543350000000011     45.627350000000000
H      49.509249999999994     48.178850000000004     47.324950000000008
H      51.467849999999999     50.408650000000002     48.277350000000006
H      49.059749999999994     47.194750000000006     48.865550000000006
H      50.868549999999999     48.877450000000003     47.610949999999995
H      46.271349999999998     48.969550000000005     49.372450000000008
H      50.126949999999994     51.670250000000003     50.233449999999998
H      46.554349999999999     50.373750000000008     51.668849999999999
H      48.747150000000005     51.386550000000007     52.257050000000000
