21

C      49.924699999999987     46.901999999999994     49.725899999999982
C      48.434099999999994     46.990799999999993     50.296999999999997
C      49.954799999999999     47.658699999999996     48.358099999999993
C      47.164499999999997     47.062200000000004     49.487199999999987
C      48.858600000000003     48.385999999999996     47.829499999999996
C      47.538599999999995     48.173699999999997     48.445200000000000
C      48.918600000000005     49.257400000000004     46.650499999999994
C      46.339999999999996     48.254000000000005     47.641799999999989
C      47.704000000000001     49.484799999999993     45.943999999999988
C      46.460500000000003     49.054000000000002     46.379700000000000
H      50.005299999999998     45.857900000000001     49.557199999999995
H      50.656200000000005     47.127200000000002     50.445299999999989
H      48.280099999999997     46.237099999999998     50.998500000000007
H      48.181899999999992     47.858300000000000     50.863900000000001
H      50.707799999999999     48.155500000000004     47.619899999999987
H      46.598999999999997     46.251100000000001     49.112799999999993
H      46.164300000000004     47.414999999999999     50.040499999999994
H      49.839599999999997     49.562100000000001     46.243099999999998
H      45.292200000000001     48.058599999999998     48.102999999999994
H      47.815800000000003     50.142099999999999     45.001499999999993
H      45.565599999999996     49.498800000000003     45.813599999999994
