20

C      49.935549999999992     47.929449999999996     46.378549999999990
C      50.221550000000008     49.154650000000004     47.413049999999998
C      49.584649999999996     46.803250000000006     47.473250000000007
C      49.354150000000004     48.934250000000006     48.739850000000004
C      48.928349999999995     47.506349999999998     48.669950000000000
C      47.844449999999995     48.445750000000004     49.046049999999994
C      47.808549999999997     46.827050000000000     49.342350000000010
C      46.612549999999999     49.020949999999999     49.539349999999999
C      46.421949999999995     46.689650000000000     49.918049999999994
C      45.804950000000005     47.942549999999997     50.097550000000012
H      49.331950000000006     48.528449999999992     45.628450000000001
H      50.714050000000000     47.459249999999997     45.627849999999995
H      50.181250000000006     50.331750000000000     47.339849999999998
H      51.241550000000004     48.956350000000000     47.935249999999996
H      50.480050000000006     46.541950000000000     47.976749999999996
H      48.899950000000004     45.920349999999999     47.221750000000000
H      49.789150000000006     49.366649999999993     49.650949999999995
H      46.528350000000003     50.159750000000003     49.168149999999997
H      46.148749999999993     45.668250000000000     50.197749999999999
H      44.758449999999996     48.082149999999999     50.372150000000005
