33

C      44.610849999999985     49.823579999999986     50.060564999999997
C      44.788350000000001     47.748219999999996     48.409094999999994
C      43.399449999999995     48.020009999999992     48.917214999999999
C      45.672249999999998     46.514569999999999     48.594515000000001
C      45.837449999999997     50.220169999999996     47.465514999999996
C      45.127749999999999     48.916829999999990     47.529704999999993
C      44.212250000000004     46.806066999999992     49.223654999999994
C      46.995349999999995     46.027870000000021     48.416544999999999
C      45.640149999999998     49.605169999999994     46.284154999999998
C      46.252649999999996     51.067549999999997     48.558194999999998
C      49.004650000000005     45.537269999999978     47.624965000000003
C      50.147050000000000     47.870989999999992     48.657115000000005
C      50.540550000000003     45.440769999999993     47.942435000000003
C      50.773750000000000     46.677931199999996     48.787004999999994
C      51.552849999999999     44.591770000000011     47.460854999999995
C      51.865649999999995     46.509670000000007     49.838515000000001
C      52.854549999999996     44.721669999999996     48.147724999999994
C      52.874749999999999     45.566970000000005     49.386634999999998
H      42.401750000000000     47.796459999999996     48.516854999999993
H      45.880350000000000     49.107559999999992     45.212445000000002
H      47.105250000000005     50.379919999999998     49.075734999999995
H      46.734749999999998     52.261729999999993     48.286315000000002
H      48.793950000000002     45.105070000000019     46.669364999999999
H      48.836149999999996     46.534969999999994     47.250405000000001
H      49.319650000000003     48.450119999999991     47.966485000000006
H      50.072250000000004     48.205549999999995     49.757474999999999
H      51.324549999999995     43.738270000000007     46.674374999999998
H      51.808550000000004     47.145493999999992     50.787554999999998
H      53.598250000000000     43.985770000000016     48.135154999999997
H      53.252149999999993     44.853670000000008     50.089234999999988
O      43.713950000000004     49.081959999999995     50.388154999999998
O      45.400849999999998     50.775439999999996     50.054774999999992
O      47.810650000000003     45.244669999999985     48.883184999999997
