22

C      47.393149999999991     47.321749999999987     50.254899999999992
C      47.259149999999998     46.037449999999993     49.182600000000001
C      48.607950000000010     48.295249999999996     50.092400000000005
C      48.751650000000005     45.876649999999998     48.520199999999996
C      48.834349999999993     48.546449999999993     48.686699999999995
C      49.008350000000000     47.283649999999994     47.849600000000002
C      49.120749999999994     49.800049999999999     48.251299999999993
C      49.415650000000007     47.548349999999999     46.507899999999999
C      49.447250000000004     50.058149999999998     46.836400000000005
C      49.360050000000001     48.865849999999995     45.916000000000004
H      48.002650000000003     46.910449999999997     51.121100000000006
H      46.317850000000000     47.740250000000003     50.641799999999996
H      46.192450000000001     45.815649999999991     48.569499999999998
H      46.857150000000004     45.072450000000003     49.686699999999995
H      48.277049999999996     49.433149999999998     50.464199999999998
H      49.641350000000003     47.824550000000002     50.427100000000003
H      49.339850000000006     44.849350000000001     48.316600000000001
H      49.248049999999999     45.889749999999992     49.618400000000001
H      49.125550000000011     50.730350000000001     48.992600000000003
H      49.389950000000006     46.637749999999997     45.722000000000001
H      49.444150000000000     51.150649999999999     46.328799999999994
H      49.807549999999999     48.958249999999992     44.878899999999994
