22

C      46.670439999999992     45.922544999999985     47.422399999999996
C      46.515439999999998     46.254805000000005     49.168199999999999
C      48.197140000000005     45.905844999999999     47.032100000000000
C      47.430040000000005     47.210184999999996     49.641199999999998
C      48.530906000000009     47.416854999999998     47.502099999999984
C      48.004040000000003     48.187214999999995     48.560399999999987
C      49.457110000000007     48.022125000000003     46.571399999999997
C      48.619748000000001     49.474514999999997     48.826099999999997
C      49.990790000000004     49.344485000000006     46.954899999999995
C      49.813740000000010     49.991105000000005     48.198399999999992
H      46.519340000000000     46.449204999999992     46.547499999999999
H      46.298940000000002     44.878294999999994     47.177800000000005
H      45.505539999999996     46.444104999999993     49.437100000000001
H      46.543539999999993     45.415064999999998     49.722899999999996
H      48.337097700000008     45.988555000000005     46.057599999999994
H      48.643248000000007     45.098844999999997     47.537199999999999
H      48.216639999999998     46.569225000000003     50.312299999999993
H      47.048540000000003     47.937264999999996     50.399299999999997
H      49.481110000000001     47.636835000000005     45.600700000000003
H      48.515518000000014     49.972875000000002     49.754599999999996
H      50.494460000000004     49.788695000000004     46.150599999999997
H      50.116600000000005     51.121705000000006     48.441999999999993
