10

C      47.160000000000004     48.528009999999995     48.010574499999990
C      46.320100000000011     47.202300000000001     48.064534499999993
C      48.305999999999997     48.322730000000000     48.776264500000011
C      48.567300000000003     47.968589999999999     47.377584499999998
C      49.669899999999998     48.167909999999999     48.192054499999998
H      46.637600000000006     46.814979999999998     49.019654500000001
H      45.321399999999997     47.490279999999998     48.263134500000007
H      46.228999999999999     46.992629999999998     46.980345499999999
H      46.330300000000008     49.185020000000002     47.560144500000007
H      50.678600000000003     48.298960000000001     48.035404499999999
