21

C      45.876750000000001     49.303099999999993     47.632199999999990
C      46.834050000000005     50.352800000000002     47.196600000000004
C      46.278649999999999     48.229799999999997     48.499099999999999
C      48.544850000000011     49.882199999999997     47.357100000000003
C      47.613349999999997     47.795400000000001     48.508799999999994
C      48.916749999999993     48.394700000000000     47.919600000000003
C      47.694950000000006     46.499099999999999     49.255300000000005
C      50.102450000000005     47.662099999999995     47.802800000000005
C      48.831050000000005     45.657899999999998     49.114500000000007
C      49.886850000000010     46.300800000000002     48.344200000000001
H      45.068849999999998     48.838800000000006     46.725200000000001
H      44.980950000000007     49.881299999999996     47.799999999999997
H      46.843450000000004     50.542000000000002     46.169100000000000
H      46.621749999999992     51.375000000000000     47.664599999999993
H      45.482050000000001     47.554199999999994     49.131799999999998
H      48.912250000000000     49.399600000000007     46.367599999999996
H      49.214849999999998     50.896600000000007     47.508099999999999
H      47.011949999999999     45.859499999999997     49.830900000000000
H      51.019049999999993     47.941199999999995     47.136499999999998
H      48.929549999999992     44.625000000000000     49.644000000000005
H      50.457450000000009     45.334400000000002     48.229699999999994
