22

C      47.719824999999986     46.575499999999998     46.166399999999996
C      48.862444999999994     45.914200000000008     47.150800000000004
C      47.298584999999989     47.538700000000006     47.603200000000008
C      49.169105000000002     46.495400000000004     48.674100000000003
C      47.630834999999990     48.258900000000011     49.942900000000002
C      48.167654999999996     47.647100000000009     48.750499999999995
C      47.226924999999994     49.548699999999997     49.873100000000001
C      48.402974999999998     48.684800000000003     47.516600000000004
C      46.768854999999988     50.237700000000004     48.596800000000002
C      47.406844999999990     49.971900000000005     47.450400000000009
H      47.053084999999996     45.813600000000008     45.769100000000002
H      48.222184999999996     47.234200000000016     45.179200000000002
H      48.448984999999993     44.821600000000004     47.340399999999995
H      49.739085000000003     45.909200000000006     46.605300000000007
H      46.188944999999990     47.576000000000008     47.764199999999995
H      48.054355000000001     47.828500000000005     50.777400000000007
H      49.097745000000003     45.607600000000005     49.285400000000003
H      49.931615000000008     47.005000000000003     48.880400000000002
H      47.036175000000000     49.990000000000009     50.820799999999998
H      49.170004999999989     48.411100000000005     46.836000000000006
H      46.068384999999992     51.178399999999996     48.861700000000006
H      47.195234999999997     50.510300000000015     46.555500000000002
