22

C      45.475699999999996     47.543349999999990     48.897599999999997
C      45.698500000000010     47.105750000000000     47.162599999999998
C      46.368000000000009     48.905450000000002     48.906999999999996
C      47.131800000000005     47.135649999999998     46.739500000000007
C      47.872200000000007     48.383649999999996     48.934799999999996
C      48.155800000000013     47.909849999999999     47.551400000000001
C      48.967799999999997     49.061150000000005     49.563199999999995
C      49.467300000000009     47.748350000000002     46.935000000000002
C      50.367600000000010     48.766150000000003     49.070499999999996
C      50.605100000000007     48.201549999999997     47.800899999999999
H      45.235300000000009     47.094349999999999     50.028999999999996
H      44.380200000000002     47.474550000000001     49.007999999999996
H      44.913400000000010     48.161449999999995     46.741000000000000
H      45.093800000000002     46.320050000000002     46.708799999999997
H      46.216000000000008     49.619349999999997     49.818200000000004
H      46.169800000000009     49.699450000000006     48.072400000000002
H      47.434399999999997     46.058349999999997     46.601900000000001
H      47.211700000000008     47.616450000000007     45.721400000000003
H      48.599100000000007     49.941650000000003     50.278599999999997
H      49.756900000000002     47.320650000000001     46.060299999999998
H      51.200200000000009     49.141349999999996     49.562899999999999
H      51.619799999999998     48.100650000000009     47.435500000000005
