14

C      46.956999999999994     46.588799999999992     49.395699999999991
C      47.350299999999997     48.751600000000003     46.392400000000002
C      47.527100000000011     47.408700000000003     48.442399999999999
C      48.753499999999995     49.038999999999994     46.603699999999996
C      47.070399999999999     47.603999999999992     47.218600000000002
C      49.304800000000007     48.965899999999998     47.856400000000001
C      48.818400000000004     48.056300000000000     48.850900000000003
H      46.932099999999998     49.253700000000002     45.628099999999996
H      47.414300000000004     46.595700000000001     50.371900000000004
H      45.874000000000002     46.481299999999997     49.185899999999997
H      49.214700000000001     49.518700000000003     45.687500000000000
H      46.488199999999999     46.984800000000000     46.589199999999998
H      50.125999999999998     49.468299999999992     48.320200000000000
H      49.333700000000000     48.119099999999996     49.792700000000004
