6

C      47.906949999999995     48.903599999999990     47.758299999999984
C      47.367150000000002     47.544100000000000     48.024599999999992
H      48.047050000000006     49.277100000000004     46.853700000000003
H      48.632849999999998     49.244200000000006     48.419200000000004
H      47.514350000000000     47.015400000000000     49.146299999999997
H      47.640750000000004     46.722899999999996     47.386299999999991
