108

C      42.859200000000001     47.871699999999990     53.197499999999991
C      44.057600000000001     48.078399999999995     52.242400000000004
C      40.909300000000009     51.738399999999992     51.109499999999997
C      41.718400000000010     48.744799999999991     53.337999999999994
C      44.175800000000002     49.524399999999993     51.660600000000002
C      40.920700000000004     51.146700000000003     52.533400000000000
C      42.431400000000004     51.460400000000000     50.424899999999994
C      41.894300000000008     49.922800000000002     52.412400000000005
C      42.897000000000013     50.300499999999992     51.346800000000002
C      42.981600000000007     46.767499999999991     54.153599999999997
C      44.229900000000008     45.925399999999989     54.261900000000011
C      45.218700000000005     46.100800000000000     53.144700000000000
C      45.249400000000001     47.273800000000001     52.412000000000006
C      42.215600000000002     46.740699999999997     55.390600000000006
C      42.422500000000007     45.851499999999994     56.534000000000006
C      43.719900000000003     45.142499999999991     56.673700000000011
C      44.410600000000009     45.040100000000002     55.399600000000007
C      41.103700000000011     47.808100000000003     55.570500000000010
C      40.588800000000013     48.646499999999996     54.373900000000006
C      46.425800000000002     45.318700000000000     52.913600000000002
C      47.437200000000011     45.144799999999996     51.835300000000004
C      47.087900000000012     46.391500000000001     50.859700000000004
C      46.566800000000008     47.588699999999996     51.811000000000007
C      45.393100000000011     49.891199999999991     51.418800000000005
C      46.631200000000000     48.971699999999991     51.458100000000002
C      39.473200000000013     49.739600000000003     54.142099999999999
C      39.713700000000010     51.279099999999993     53.815700000000007
C      41.163200000000010     52.677599999999991     52.354500000000002
C      39.600100000000005     51.768599999999999     50.619699999999995
C      48.141700000000007     46.426600000000001     49.497500000000002
C      52.763300000000008     47.655799999999992     44.584299999999999
C      54.112600000000008     47.135100000000001     44.722899999999996
C      52.198400000000014     45.488700000000001     51.071899999999999
C      52.083800000000004     47.969900000000003     45.811800000000005
C      54.896800000000006     46.934099999999994     45.947400000000002
C      51.688500000000012     46.804799999999993     50.690700000000007
C      53.512500000000010     45.428999999999995     50.384900000000002
C      52.202600000000011     48.345799999999990     48.525999999999996
C      54.762800000000006     46.862899999999989     48.418000000000006
C      52.742400000000011     47.967499999999994     47.145200000000003
C      54.116300000000003     47.260299999999994     47.159000000000006
C      52.548300000000005     47.531699999999994     49.710999999999999
C      53.790100000000002     46.643499999999996     49.549400000000006
C      52.082600000000006     47.891100000000002     43.258099999999999
C      52.620200000000004     47.445900000000002     41.991699999999994
C      53.941000000000010     46.977199999999989     42.145600000000002
C      54.772200000000005     46.922899999999991     43.435699999999997
C      50.658400000000007     48.249299999999998     43.099599999999995
C      50.576300000000010     47.631700000000002     40.467699999999994
C      51.921400000000013     47.223099999999995     40.575500000000005
C      50.131700000000002     48.524099999999997     44.437399999999997
C      50.683600000000006     48.588999999999992     45.778000000000006
C      50.085800000000013     48.801299999999991     47.146900000000002
C      50.737100000000005     48.746299999999998     48.311000000000007
C      50.105400000000010     48.815099999999994     49.777200000000008
C      50.252400000000002     47.166300000000000     50.479699999999994
C      56.161700000000003     46.312199999999997     48.829499999999996
C      51.342300000000002     44.367600000000003     51.780000000000001
C      50.724000000000011     43.147500000000001     50.808899999999994
C      49.554600000000001     46.008299999999998     49.826800000000006
C      49.746400000000001     47.560600000000001     39.393500000000003
C      49.749100000000006     47.222699999999996     52.037400000000005
H      42.971900000000012     52.319499999999998     50.697800000000001
H      42.562300000000000     51.413099999999993     49.301800000000000
H      41.569000000000010     45.522199999999991     57.325900000000004
H      44.174300000000009     44.557699999999990     57.460800000000006
H      45.215500000000013     44.393999999999998     55.250200000000007
H      46.205400000000004     44.582699999999996     53.825300000000013
H      48.004300000000008     44.295899999999996     51.683000000000007
H      46.161900000000010     46.012899999999995     50.420299999999997
H      45.642000000000003     50.836399999999990     51.242900000000006
H      47.405700000000003     49.826799999999999     51.040700000000001
H      38.954500000000003     49.598300000000002     55.097700000000003
H      39.067300000000010     49.658600000000000     53.149100000000004
H      38.873500000000000     51.726700000000001     53.372100000000003
H      40.073900000000002     51.815999999999995     54.647499999999994
H      40.472100000000005     53.767800000000001     52.477000000000004
H      41.879300000000008     53.038499999999992     53.259000000000015
H      38.947800000000008     52.220599999999997     51.433499999999995
H      38.987300000000012     50.785999999999994     50.750399999999999
H      39.612800000000000     52.288099999999993     49.576499999999996
H      48.165300000000009     47.508999999999993     48.873099999999994
H      48.055700000000009     45.582400000000000     48.757599999999996
H      55.882000000000012     46.324399999999990     45.977699999999999
H      54.076600000000006     44.578899999999997     49.944100000000006
H      54.692700000000009     46.277499999999996     41.418499999999995
H      56.035800000000002     46.862499999999990     43.397999999999996
H      48.669600000000010     47.850299999999997     39.808199999999999
H      52.227900000000012     46.517499999999991     39.684799999999996
H      48.966600000000007     49.155499999999996     47.055000000000007
H      49.307200000000002     49.447899999999997     50.091800000000006
H      50.711300000000001     49.364799999999995     50.472400000000007
H      51.980500000000013     44.041999999999994     52.646400000000000
H      50.456200000000003     44.336199999999998     52.316599999999994
H      49.747500000000009     43.484999999999992     50.333900000000000
H      51.401000000000003     43.097799999999999     49.957300000000004
H      50.534800000000011     42.232199999999999     51.410200000000003
H      49.706800000000008     45.101700000000001     50.471100000000007
H      49.914600000000000     45.586300000000001     48.905500000000004
H      49.963700000000010     46.973499999999994     38.539199999999994
H      48.942400000000013     48.838999999999992     44.455900000000000
H      50.051400000000008     48.287199999999991     52.286000000000001
H      48.807800000000007     46.530799999999992     52.523799999999994
H      50.570400000000014     46.629899999999999     52.515799999999999
H      48.939800000000012     47.996999999999993     42.055999999999997
N      49.941200000000002     48.209399999999995     41.785399999999996
O      41.290700000000008     49.042999999999999     55.758100000000013
O      57.126500000000000     45.846299999999992     49.181799999999996
