5

C      48.098449999999993     47.972099999999998     47.931049999999985
H      47.337850000000003     47.461899999999993     48.479949999999995
H      47.679349999999999     48.794199999999996     47.356649999999995
H      48.539349999999999     48.349299999999992     48.669249999999998
H      48.662149999999997     47.205800000000004     47.330750000000002
