21

C      47.919799999999995     50.658274999999989     47.266049999999993
C      48.124400000000001     49.824574999999996     48.499849999999995
C      48.232700000000008     47.627475000000004     45.856449999999995
C      46.864000000000004     49.592074999999994     47.278449999999992
C      48.666600000000010     47.337985000000003     47.252549999999999
C      48.460400000000014     48.278225000000006     48.322849999999988
C      49.001100000000015     46.018145000000004     47.559449999999998
C      48.849000000000004     47.424515000000000     49.504149999999996
C      49.308500000000002     45.251945000000006     48.808349999999990
C      49.242500000000014     46.167375000000007     49.826749999999990
H      47.516200000000005     51.659075000000001     47.273849999999996
H      48.822500000000012     50.465374999999995     46.758650000000003
H      48.071000000000005     50.194874999999996     49.675249999999991
H      46.669400000000003     48.957425000000001     46.505449999999996
H      48.163200000000010     48.540785000000000     45.384850000000000
H      48.264000000000003     46.727125000000001     45.141350000000003
H      46.231900000000003     48.893924999999996     47.812649999999991
H      49.384000000000007     45.269625000000005     46.831549999999993
H      48.826100000000004     48.130335000000002     50.411149999999992
H      49.768099999999997     44.340924999999999     48.652549999999991
H      49.224000000000004     45.922195000000002     50.858649999999997
