21

C      49.698649999999986     48.083449999999999     45.488049999999987
C      49.163049999999998     49.461449999999999     46.592250000000007
C      49.430449999999993     48.067949999999996     46.912949999999995
C      50.129049999999992     46.874250000000004     50.082049999999995
C      48.519949999999994     47.317949999999996     47.941549999999992
C      48.889049999999997     47.009349999999998     49.345750000000010
C      47.097650000000002     47.201450000000008     47.907550000000001
C      47.823149999999998     46.637349999999998     50.310949999999991
C      46.130849999999995     46.589950000000002     48.883250000000004
C      46.381749999999997     46.481549999999999     50.217349999999996
H      48.208950000000002     49.864450000000005     46.462650000000011
H      48.728449999999995     47.566950000000006     44.654849999999996
H      50.119650000000007     49.889449999999997     46.809350000000009
H      50.792149999999992     48.362150000000000     45.246849999999995
H      50.397250000000000     48.061750000000004     47.491350000000011
H      50.972750000000005     46.780749999999998     49.402649999999994
H      50.468850000000003     47.041449999999998     51.273350000000008
H      46.783450000000002     47.760050000000007     47.084150000000008
H      48.268649999999994     46.214650000000006     51.345150000000004
H      45.027249999999995     46.654750000000007     48.419850000000011
H      45.693550000000002     46.110550000000003     50.856949999999998
