22

C      47.580449999999999     50.627249999999997     47.807049999999990
C      47.957949999999997     49.913550000000001     49.222549999999998
C      47.100049999999996     49.464950000000002     46.829849999999993
C      49.034850000000006     48.900649999999999     49.202349999999996
C      47.330550000000002     47.989850000000004     47.357050000000001
C      48.329049999999995     47.695750000000004     48.400549999999996
C      46.733149999999995     46.772250000000000     46.807249999999996
C      48.675250000000005     46.529550000000000     48.970650000000006
C      46.712850000000003     45.435249999999996     47.595749999999995
C      47.704350000000005     45.435150000000007     48.640550000000005
H      48.483549999999994     51.086650000000006     47.217250000000007
H      46.745649999999998     51.445250000000001     47.877250000000004
H      47.095450000000000     49.276849999999996     49.557550000000006
H      47.844149999999999     50.691950000000006     50.115049999999997
H      47.706750000000000     50.025250000000000     45.961449999999999
H      46.056250000000006     49.729650000000007     46.997349999999997
H      49.216649999999987     48.643250000000009     50.135750000000002
H      49.966549999999998     49.474150000000009     48.682950000000005
H      46.177850000000007     46.728650000000002     45.864249999999998
H      49.257949999999994     46.327050000000000     49.760850000000005
H      46.033450000000002     44.670550000000006     47.388249999999999
H      47.996549999999999     44.554749999999999     49.268850000000000
