66

C      49.282999999999994     49.276849999999996     50.930599999999991
C      48.641500000000008     50.410050000000005     50.145299999999999
C      45.389499999999998     45.030250000000002     44.573999999999998
C      49.150599999999997     47.806550000000009     50.790700000000001
C      44.429100000000005     47.216050000000003     43.374099999999999
C      48.037000000000006     49.865750000000006     48.817799999999998
C      46.071100000000001     44.558050000000001     45.996000000000002
C      44.766800000000003     47.913250000000005     44.642499999999998
C      46.273200000000003     49.059850000000004     46.461900000000000
C      47.038499999999999     46.636450000000004     49.350300000000004
C      45.085400000000007     46.527850000000008     44.467100000000002
C      48.082300000000004     47.672850000000004     49.753300000000003
C      45.844600000000000     45.556450000000005     47.169000000000004
C      47.632400000000004     48.432650000000002     48.667000000000002
C      46.876199999999997     48.104750000000003     47.512999999999998
C      46.629700000000000     46.706450000000004     47.969400000000000
C      47.723100000000002     50.627350000000000     47.723100000000002
C      49.894199999999998     49.831750000000007     52.146300000000004
C      50.096400000000003     51.282150000000009     52.241999999999990
C      49.327200000000005     52.230750000000008     51.508099999999999
C      48.441900000000004     51.740249999999996     50.436900000000001
C      47.839100000000002     52.847950000000004     49.297200000000004
C      47.718400000000003     52.054549999999999     48.016199999999998
C      49.520899999999997     47.095150000000004     52.064000000000000
C      50.403500000000008     47.589250000000000     53.019900000000007
C      50.532799999999995     49.067950000000003     53.153500000000008
C      43.946300000000008     46.629250000000006     42.081800000000001
C      45.228300000000004     48.935950000000005     45.565899999999999
C      44.659000000000006     45.555650000000007     47.953000000000003
C      51.403099999999995     46.528050000000000     53.697299999999998
C      45.629199999999997     43.024050000000003     46.084600000000002
C      46.976700000000008     44.987750000000005     44.964200000000005
C      47.364500000000007     42.536150000000006     48.084099999999999
C      46.082999999999998     42.649350000000005     48.825200000000002
C      47.090100000000007     42.542350000000006     46.597999999999999
H      44.993700000000004     44.202550000000002     43.880800000000001
H      46.891999999999996     45.821150000000003     50.005800000000001
H      50.856200000000001     51.535650000000011     52.978200000000001
H      46.795600000000007     53.545650000000002     49.584699999999998
H      48.347400000000007     53.746249999999996     49.014099999999999
H      47.711299999999994     52.717549999999996     47.209000000000003
H      49.420400000000001     46.008550000000007     51.860100000000003
H      51.688800000000001     45.671350000000004     53.203900000000004
H      51.089200000000005     49.505850000000002     53.944099999999999
H      44.098299999999995     47.348450000000007     41.277299999999997
H      44.145499999999998     45.746150000000007     41.422399999999996
H      44.695200000000000     49.751250000000006     44.986800000000002
H      50.176299999999998     54.524149999999999     52.905500000000004
H      44.793900000000008     46.460350000000005     48.339399999999998
H      43.813800000000001     44.858049999999999     47.770899999999997
H      52.186199999999999     47.119150000000005     54.040900000000008
H      50.915599999999998     45.967950000000009     54.722700000000003
H      45.000900000000001     42.664350000000006     46.843600000000002
H      45.497600000000006     42.377550000000006     45.197400000000002
H      47.433800000000005     44.351950000000002     44.162800000000004
H      47.564999999999998     45.926650000000002     45.129599999999996
H      48.137400000000000     43.184850000000004     48.467599999999997
H      47.814700000000002     41.585250000000002     48.335000000000001
H      46.034900000000007     43.741250000000001     48.872300000000003
H      46.007800000000003     42.192750000000004     50.012799999999999
H      47.803100000000001     43.127350000000000     45.930599999999998
H      47.699399999999997     41.475850000000001     46.562700000000000
H      45.050700000000006     42.277850000000008     48.432299999999998
H      46.490600000000001     51.368650000000009     46.112700000000004
N      46.781400000000005     50.353050000000003     46.471400000000003
S      49.502499999999998     54.099150000000002     51.669299999999993
