22

C      48.501049999999992     46.228949999999990     49.661300000000004
C      49.504050000000007     46.951750000000004     49.006000000000000
C      47.159850000000006     47.219949999999997     49.667300000000012
C      49.041150000000002     46.608549999999994     47.597200000000001
C      46.867350000000002     47.954149999999998     48.315500000000000
C      47.994050000000001     47.748949999999994     47.262100000000004
C      45.962550000000007     49.121349999999993     48.065700000000007
C      48.358750000000001     48.642649999999996     46.275500000000008
C      46.168650000000000     49.856150000000000     46.873100000000008
C      47.295649999999995     49.666550000000001     45.987500000000011
H      48.643250000000009     45.873049999999999     50.727699999999999
H      48.047349999999994     45.286749999999998     49.214900000000000
H      50.615449999999996     46.408249999999995     49.258800000000008
H      49.488650000000007     48.065349999999995     49.352200000000011
H      47.540549999999996     48.033050000000003     50.299400000000006
H      46.202550000000002     47.202349999999996     50.079800000000006
H      48.330050000000000     45.547249999999998     47.372900000000001
H      49.802650000000000     46.820549999999997     46.825500000000005
H      45.384550000000004     49.924449999999993     48.969000000000008
H      49.397850000000005     48.641149999999996     45.693700000000007
H      45.592950000000002     50.713250000000002     47.050100000000000
H      47.491450000000000     50.541550000000001     45.272300000000001
