22

C      47.935999999999993     49.393445000000000     49.742199999999997
C      46.538499999999999     49.187744999999993     49.328000000000003
C      48.536999999999999     49.876745000000000     48.193200000000004
C      46.565199999999997     47.880664999999993     48.852500000000006
C      48.620699999999992     48.476044999999999     47.419399999999996
C      47.621600000000001     47.607564999999994     47.708399999999997
C      49.835100000000004     48.236305000000002     46.627800000000008
C      47.377200000000002     46.541794999999993     46.684500000000000
C      49.672800000000002     47.228574999999992     45.708299999999994
C      48.506700000000002     46.335454999999996     45.885999999999996
H      48.649300000000004     48.401245000000003     49.879000000000005
H      48.141100000000002     49.850044999999994     50.838300000000004
H      45.683100000000003     49.422044999999997     50.142200000000003
H      45.908400000000000     50.164344999999997     48.534300000000002
H      47.711800000000004     50.645444999999995     47.828100000000006
H      49.416400000000003     50.288044999999997     48.266400000000004
H      45.453499999999998     47.371534999999994     48.578699999999998
H      46.745399999999997     47.016024999999999     49.704499999999996
H      50.546500000000002     48.846144999999993     46.166200000000003
H      46.685899999999997     45.593445000000003     46.971199999999996
H      50.542700000000004     46.869294999999994     45.161699999999996
H      48.506700000000002     45.354555000000005     45.349900000000005
