11

C      46.428899999999999     48.424449999999993     48.509999999999998
C      47.606400000000015     48.082460000000005     49.265500000000003
C      47.679300000000005     49.206080000000007     48.326400000000007
C      49.111600000000017     49.508370000000006     47.839600000000004
C      49.778500000000001     48.431510000000010     47.145600000000002
C      48.661200000000001     46.989420000000003     49.302300000000002
H      45.719500000000004     48.523720000000004     49.521699999999996
H      46.007100000000008     47.547740000000005     47.901600000000002
H      49.534700000000008     50.138320000000000     48.382800000000003
O      50.280499999999996     47.700890000000001     46.478300000000004
O      48.814100000000003     45.861680000000000     49.127399999999994
