5

C      47.887389999999996     47.960483999999987     48.278949999999995
H      47.853490000000001     46.945705000000004     48.513950000000001
H      47.278810000000000     47.662503999999998     47.486049999999999
H      48.721190000000000     48.148605999999987     47.632749999999994
H      47.390438000000003     49.054294999999996     48.317150000000005
