49

C      47.552349999999990     48.150268999999987     47.756849999999993
C      48.322449999999989     48.750268999999989     49.029250000000005
C      51.304849999999988     47.238269000000003     45.359949999999998
C      47.704249999999988     47.847468999999990     46.319450000000003
C      49.485949999999988     49.007368999999997     45.016750000000002
C      49.914949999999990     47.675168999999997     44.963949999999997
C      51.444449999999989     47.973168999999999     46.794049999999999
C      49.340849999999989     48.158468999999997     46.180549999999997
C      50.268749999999983     48.472769000000000     47.231049999999996
C      46.100449999999995     47.798068999999998     47.954549999999998
C      45.679749999999999     47.595568999999998     49.324950000000001
C      46.313449999999989     48.260268999999994     50.660750000000007
C      48.588949999999983     47.514668999999998     49.719850000000008
C      45.312849999999997     46.963768999999999     47.174350000000004
C      44.187449999999998     46.375068999999996     47.930250000000001
C      44.372149999999991     46.932068999999998     49.282650000000004
C      45.537649999999999     48.296968999999990     51.898250000000004
C      45.132149999999996     46.973269000000002     45.689149999999998
C      46.638049999999993     47.282068999999993     45.459550000000007
C      47.244149999999991     46.894168999999991     44.104450000000000
C      49.034549999999982     46.685868999999997     44.072850000000003
C      49.632749999999987     49.312669000000000     48.513850000000005
C      48.339449999999999     49.214868999999993     51.700150000000008
C      47.732749999999996     48.583468999999994     50.369850000000000
C      52.441249999999997     46.984468999999990     44.221450000000004
C      43.731749999999991     46.526868999999991     45.033550000000005
H      51.094149999999999     46.252268999999998     45.648049999999998
H      52.378149999999991     47.877769000000001     47.335350000000005
H      48.278749999999988     46.707869000000002     49.124549999999999
H      43.348949999999988     45.983268999999993     47.548850000000002
H      43.659250000000000     46.978769000000000     49.988150000000005
H      46.701650000000001     45.987468999999990     43.625850000000000
H      46.960049999999995     47.654369000000003     43.325249999999997
H      49.645649999999989     47.504268999999994     43.349350000000001
H      49.435149999999993     45.592368999999991     44.061750000000004
H      49.103349999999992     49.387068999999997     44.004850000000005
H      50.512949999999989     49.125468999999995     49.220950000000002
H      49.541649999999990     50.407631000000009     48.088750000000005
H      48.241049999999987     48.373268999999993     52.624850000000009
H      49.579449999999994     49.439268999999996     51.303150000000002
H      53.043650000000000     47.704568999999992     44.030349999999999
H      51.982549999999989     46.618068999999991     43.392550000000000
H      52.866949999999989     46.069969000000000     44.311949999999996
H      42.956350000000000     45.905868999999996     45.383350000000007
H      43.032049999999998     47.297368999999989     44.786050000000003
H      44.384149999999991     45.897568999999990     44.279849999999996
H      46.264849999999996     48.842968999999997     52.674750000000003
H      47.869549999999990     50.167747000000006     51.693250000000006
O      44.563549999999992     47.599368999999996     51.920150000000007
