13

C      46.451079999999990     49.472349999999992     47.503315000000001
C      47.312780000000004     48.932249999999996     46.479115000000007
C      48.254480000000001     47.785150000000002     48.351315000000000
C      48.419980000000010     48.117549999999994     46.998215000000002
C      47.660980000000009     48.458150000000003     49.586314999999999
C      46.625780000000006     49.161450000000002     49.019114999999999
C      49.360380000000006     47.214749999999995     47.821914999999990
H      45.653120000000001     49.573149999999998     49.313215000000000
H      47.335080000000005     49.498649999999998     45.392084999999994
H      47.973680000000002     48.491349999999997     50.607915000000006
H      49.742980000000003     45.867850000000004     47.188614999999999
H      50.346879999999999     47.823449999999994     47.866115000000008
H      45.671040000000005     50.132149999999996     47.184815000000000
