22

C      50.212249999999997     47.725399999999993     49.888999999999989
C      49.786249999999995     48.323699999999995     48.521199999999993
C      49.424850000000006     46.527600000000000     46.224399999999996
C      49.740150000000000     49.373799999999996     49.592399999999998
C      48.222650000000002     46.859400000000001     46.983099999999993
C      48.422849999999997     47.911700000000003     47.910399999999996
C      46.954949999999997     46.368500000000004     46.741000000000000
C      47.143549999999991     48.627400000000002     48.308199999999999
C      45.757750000000001     46.918900000000001     47.443099999999994
C      45.793650000000000     48.056800000000003     48.236499999999992
H      49.119850000000000     45.515300000000003     45.590499999999992
H      51.283749999999998     47.825099999999999     50.076399999999992
H      49.483649999999997     46.918900000000001     50.420800000000000
H      50.360049999999987     48.791699999999999     47.710099999999997
H      49.191649999999996     50.484699999999997     49.507899999999992
H      50.332650000000001     46.880699999999997     46.818799999999996
H      49.693150000000003     47.268300000000004     45.579200000000000
H      50.369749999999996     50.160499999999992     49.083099999999995
H      46.874949999999998     45.588699999999996     46.063899999999997
H      47.211449999999999     49.550300000000000     48.978499999999997
H      44.716250000000002     46.471200000000003     47.055399999999992
H      44.752549999999999     48.630500000000005     48.245799999999996
