22

C      50.241749999999996     48.785649999999997     48.742649999999998
C      50.914550000000013     47.433150000000005     48.448549999999997
C      48.763350000000003     49.244850000000000     49.344049999999996
C      49.566549999999999     46.823350000000005     47.723150000000004
C      47.800050000000006     48.736950000000000     48.247450000000001
C      48.034750000000003     47.599750000000000     47.536050000000003
C      46.554549999999999     49.296750000000003     48.416350000000008
C      46.991550000000004     47.195150000000005     46.745350000000002
C      45.250150000000005     48.880949999999999     47.850350000000006
C      45.751350000000002     48.057350000000000     46.650550000000010
H      48.956650000000003     49.884550000000004     50.243049999999997
H      50.586350000000003     49.743350000000007     48.335149999999999
H      50.906850000000013     48.801249999999996     49.648249999999990
H      51.772849999999998     47.543650000000000     47.711750000000009
H      51.317750000000011     46.865550000000006     49.320149999999998
H      48.339350000000003     48.503150000000005     50.015250000000009
H      49.154949999999999     46.101050000000001     48.508449999999996
H      49.667550000000006     45.924650000000000     46.849750000000000
H      46.321550000000002     50.075350000000000     49.221150000000009
H      46.922050000000006     46.489450000000005     45.819450000000003
H      44.227150000000002     48.977050000000006     48.424250000000001
H      45.131450000000001     48.051550000000006     45.756950000000003
