22

C      47.214550000000003     47.712149999999994     46.197149999999993
C      48.673350000000006     47.934850000000004     45.361950000000000
C      46.329850000000000     48.528950000000002     48.437350000000002
C      49.550649999999997     48.441250000000004     46.596550000000001
C      47.462949999999999     47.658149999999999     47.663550000000008
C      48.990050000000004     47.708649999999999     47.872750000000003
C      46.728749999999998     46.912649999999992     48.667549999999999
C      49.473450000000007     47.491449999999993     49.094950000000004
C      47.258950000000006     46.841550000000005     50.072550000000000
C      48.647050000000000     47.032949999999992     50.232449999999993
H      46.513350000000010     46.965550000000000     45.567950000000003
H      46.811250000000008     48.452850000000005     46.021450000000002
H      48.720550000000010     48.916549999999994     44.733449999999998
H      49.037650000000006     47.158149999999999     44.778250000000000
H      45.302849999999999     48.857250000000001     48.721750000000007
H      46.902850000000008     49.190149999999996     49.019349999999996
H      49.540550000000003     49.684750000000001     46.711750000000002
H      50.480049999999999     48.083549999999995     46.219349999999999
H      45.855250000000005     46.315249999999999     48.471049999999998
H      50.697150000000001     47.541549999999994     49.041750000000000
H      46.416550000000008     46.692349999999998     50.831949999999999
H      48.891350000000010     47.126749999999994     51.266550000000002
