22

C      50.097499999999989     47.050049999999985     48.820989999999988
C      49.773499999999999     47.968150000000001     49.909469999999999
C      49.637100000000004     47.387449999999994     47.394549999999995
C      48.315100000000001     48.754849999999998     49.932209999999998
C      48.016099999999994     47.968449999999997     47.399239999999999
C      47.683099999999996     48.678850000000004     48.513629999999999
C      47.382800000000003     47.724349999999994     46.005189999999999
C      46.489199999999997     49.395949999999992     48.266549999999995
C      46.051299999999998     48.300049999999992     45.914299999999997
C      45.719400000000007     49.163350000000001     46.927169999999997
H      49.706299999999999     45.914250000000003     48.906149999999997
H      51.248400000000004     47.165349999999997     48.762299999999996
H      50.566500000000005     48.696249999999999     49.996399999999994
H      49.664500000000004     47.348049999999994     51.014370000000000
H      49.847499999999997     46.473849999999992     46.632610000000000
H      50.311199999999999     48.317649999999993     47.149349999999998
H      48.329700000000003     49.858849999999997     50.247019999999999
H      47.691100000000006     48.071350000000002     50.701619999999998
H      47.896100000000004     47.207649999999994     45.267609999999998
H      46.161799999999999     50.085749999999997     48.926109999999994
H      45.598799999999997     48.402750000000005     44.985630000000000
H      44.751599999999996     49.808550000000004     46.666519999999998
