22

C      46.641149999999996     48.084524999999999     50.281199999999984
C      45.624450000000003     48.506414999999990     49.514600000000002
C      48.144550000000002     48.114135000000005     49.856099999999998
C      50.503750000000004     49.143645000000006     47.831199999999995
C      49.296550000000003     48.224525000000000     47.297100000000000
C      48.322250000000004     47.803915000000003     48.222099999999998
C      49.395250000000004     47.728335000000001     45.918899999999994
C      47.430050000000001     46.950344999999999     47.504999999999995
C      48.705850000000005     46.576085000000006     45.364699999999999
C      47.537050000000001     46.370485000000002     46.224999999999994
H      49.776550000000007     49.674095000000008     48.601199999999992
H      45.753350000000005     48.900075000000001     48.555700000000002
H      46.611650000000004     47.688365000000005     51.543400000000005
H      44.589250000000000     48.579805000000007     49.795000000000002
H      48.302150000000005     49.173924999999997     50.218599999999995
H      48.576350000000012     47.361085000000003     50.596400000000003
H      51.410750000000000     48.672604999999990     48.464199999999991
H      50.398850000000003     50.184354999999996     47.243899999999996
H      50.348050000000008     48.238174999999998     45.511899999999997
H      46.663249999999998     46.950355000000002     48.319199999999995
H      48.833050000000007     45.975695000000002     44.456599999999995
H      46.533750000000005     45.815645000000004     46.017299999999992
