44

C      49.169749999999993     45.063999999999993     47.117199999999983
C      50.145850000000003     43.939900000000002     46.877399999999994
C      49.072349999999993     48.713299999999997     50.646400000000000
C      46.641349999999996     45.891300000000008     50.100999999999999
C      50.199449999999992     43.102100000000000     48.089999999999989
C      48.681149999999995     47.787700000000008     49.750600000000006
C      47.421450000000000     45.601300000000002     48.866399999999999
C      48.575449999999996     44.701799999999999     48.489599999999996
C      49.287450000000000     43.648400000000002     49.188900000000004
C      49.349649999999990     45.918600000000005     45.852699999999999
C      48.706949999999999     47.072200000000002     45.172199999999989
C      50.410549999999994     45.245399999999997     44.968800000000002
C      50.629449999999999     43.997000000000000     45.467599999999990
C      47.716149999999992     49.391700000000007     44.976199999999992
C      48.291849999999990     48.299299999999995     45.749499999999998
C      45.642350000000000     45.360700000000001     48.942800000000005
C      47.918450000000000     48.063399999999994     51.261600000000001
C      47.843449999999997     46.788800000000002     49.249700000000004
C      50.195649999999993     48.037700000000008     49.619799999999998
C      47.619849999999992     51.688899999999997     48.383899999999997
C      47.733950000000000     50.394900000000000     49.111000000000004
C      48.691650000000003     50.107999999999997     50.126800000000003
C      49.195450000000001     51.389699999999998     50.817899999999995
C      48.610349999999990     52.754600000000003     50.592900000000000
C      47.914949999999997     52.823799999999999     49.227000000000004
H      50.680149999999990     42.217300000000002     48.473600000000005
H      48.633249999999997     46.866700000000002     44.105300000000000
H      50.830149999999996     45.669400000000003     44.081899999999990
H      51.410750000000000     43.437500000000000     44.963099999999997
H      47.178649999999998     49.277099999999997     43.914199999999994
H      48.773850000000003     48.545200000000001     46.693999999999988
H      47.904549999999993     50.454799999999999     45.127299999999991
H      47.949350000000003     47.225100000000005     52.085800000000006
H      46.615649999999995     48.271999999999998     50.841200000000001
H      46.722949999999990     45.821900000000007     51.235500000000002
H      48.975850000000001     43.352800000000002     50.193200000000004
H      50.948949999999989     47.424900000000001     50.152500000000003
H      50.414549999999998     48.675699999999999     48.660299999999992
H      47.284550000000003     51.812000000000005     47.371300000000005
H      47.337749999999993     49.663900000000005     48.534999999999997
H      50.309549999999994     51.243199999999995     50.990399999999994
H      48.933249999999994     53.782699999999998     50.797200000000004
H      47.412050000000001     53.671700000000008     48.914400000000001
O      44.589250000000000     45.435899999999997     48.626400000000004
