6

C      48.495149999999995     47.577359999999992     48.215099999999993
C      47.464350000000003     48.610759999999999     47.971299999999999
H      49.457249999999995     48.063960000000009     48.056699999999999
H      48.521349999999998     46.504840000000002     48.481400000000001
H      47.984650000000002     49.495159999999998     47.894299999999994
H      46.542750000000005     48.309759999999997     47.518599999999999
