22

C      48.754799999999996     46.413299999999992     46.392699999999991
C      49.934200000000004     46.393400000000000     47.357099999999996
C      47.317800000000005     46.249900000000004     47.211700000000000
C      49.704999999999998     47.117100000000001     48.719400000000000
C      47.326500000000003     47.693400000000004     47.918399999999998
C      48.525000000000006     48.179600000000001     48.583499999999994
C      46.153100000000002     48.537900000000000     48.076199999999993
C      48.651700000000005     49.435900000000004     49.368199999999995
C      46.310600000000008     49.727499999999999     48.900699999999993
C      47.475200000000001     50.191700000000004     49.618099999999991
H      48.521100000000004     45.407400000000003     45.840399999999995
H      48.895700000000005     47.309899999999992     45.541300000000000
H      51.006399999999999     46.385200000000005     46.847500000000004
H      50.577500000000001     45.424199999999999     47.764800000000001
H      46.947900000000004     45.134200000000000     47.446999999999996
H      46.271700000000003     46.368700000000004     46.615400000000001
H      50.674400000000006     47.717400000000005     49.064900000000002
H      50.094900000000003     46.638700000000000     49.715799999999994
H      44.993600000000001     48.169699999999999     47.905300000000004
H      49.570499999999996     49.452199999999998     49.964599999999997
H      45.470200000000006     50.267400000000002     49.054399999999994
H      47.409500000000001     50.865800000000000     50.458700000000000
