16

C      49.362399999999994     46.244004999999987     49.555610000000001
C      46.918900000000008     47.607052899999992     50.005420000000015
C      47.559100000000001     48.015093000000000     48.656945000000007
C      48.428400000000011     47.076604999999994     49.483400000000003
C      47.272100000000009     47.344204999999995     47.470860000000030
C      47.555900000000008     49.497914999999999     48.218928000000005
C      47.800100000000000     48.184029000000002     46.365060000000028
C      47.901300000000006     49.503345000000003     46.898360000000011
H      50.029100000000000     46.024304999999991     48.616406000000012
H      49.604600000000005     45.556004999999992     50.459510000000023
H      45.970900000000000     47.156404999999999     49.763750000000016
H      46.785000000000011     48.421186999999996     50.812740000000005
H      46.912700000000001     46.382104999999989     47.523160000000033
H      47.448999999999998     50.443995000000008     48.903085000000004
H      47.677700000000002     48.031149000000006     45.187259999999995
H      47.941500000000005     50.422045000000004     46.190060000000031
