18

C      49.829444999999993     49.633699999999997     49.276899999999998
C      46.538525000000000     48.988800000000005     50.260100000000001
C      47.639665000000001     48.630099999999999     47.784400000000005
C      47.415034999999996     49.416200000000003     48.906600000000005
C      48.114674999999998     48.847999999999999     46.410000000000004
C      47.685124999999999     47.226600000000005     48.267000000000003
C      48.675464999999996     47.581600000000002     45.978600000000007
C      48.320374999999999     46.596699999999998     47.137000000000008
H      45.372554999999998     49.414300000000004     50.062000000000005
H      47.055484999999997     49.520400000000002     51.075099999999999
H      46.330034999999995     47.889400000000002     50.443199999999997
H      48.010574999999996     49.840000000000003     45.996200000000009
H      47.243865000000000     46.740600000000001     49.269000000000005
H      48.900314999999999     47.322099999999999     44.924900000000001
H      48.501264999999997     45.485500000000002     47.269200000000005
H      47.326675000000002     50.514499999999998     48.825500000000005
O      48.741565000000001     49.364600000000003     49.805400000000006
O      50.627445000000002     49.957100000000011     48.414300000000004
