5

C      48.036899999999996     47.912799999999990     47.972999999999985
H      48.714399999999998     46.997699999999995     47.866699999999994
H      48.472799999999992     49.002300000000005     47.739199999999997
H      47.285600000000002     47.917800000000000     48.943200000000004
H      47.704399999999993     47.412499999999994     47.056799999999996
