22

C      47.090999999999987     50.365149999999993     46.472600000000000
C      47.183799999999991     50.674049999999994     48.113000000000007
C      47.741299999999995     48.953649999999996     46.162200000000006
C      46.961499999999994     49.473550000000003     48.977300000000007
C      48.136200000000002     47.925049999999999     47.167899999999996
C      48.038099999999993     48.299750000000003     48.647399999999998
C      48.932699999999997     46.720849999999999     46.843100000000000
C      48.444199999999995     47.371549999999999     49.656799999999997
C      49.309999999999988     45.610149999999990     47.803199999999997
C      49.158400000000000     46.114049999999992     49.244899999999994
H      47.359899999999996     51.256450000000001     45.729099999999995
H      46.003399999999999     50.411549999999991     46.247800000000005
H      46.425799999999995     51.207250000000002     48.637200000000000
H      48.240799999999993     50.788249999999991     48.030300000000004
H      48.633099999999999     49.070549999999997     45.442500000000003
H      47.059799999999996     48.462549999999993     45.377800000000001
H      46.247000000000000     48.754649999999998     48.684800000000003
H      46.714799999999997     49.603749999999991     50.129799999999996
H      49.105099999999993     46.928550000000001     45.818900000000006
H      48.214299999999994     47.642650000000003     50.622199999999999
H      49.996600000000001     44.743549999999999     47.670300000000005
H      49.600399999999993     45.591250000000002     50.106299999999997
