62

C      46.483649999999997     48.394499999999994     50.196899999999985
C      46.379350000000002     49.168100000000003     48.895599999999995
C      52.038049999999998     47.851800000000004     49.607800000000005
C      51.592349999999996     48.426400000000008     48.344599999999993
C      47.968150000000009     47.959200000000003     50.426700000000004
C      47.436450000000008     49.031100000000002     48.066600000000001
C      50.595950000000002     47.941200000000002     50.184000000000005
C      50.167450000000002     48.578099999999999     47.895999999999994
C      49.248150000000010     48.320799999999998     49.847900000000003
C      48.877849999999995     48.695199999999993     48.410899999999991
C      45.602450000000005     47.784299999999995     51.228500000000004
C      44.209649999999996     47.738399999999999     50.847500000000004
C      43.049149999999997     47.711400000000005     51.673999999999999
C      45.055149999999998     49.803599999999996     48.476499999999994
C      53.568150000000003     47.349399999999996     49.784799999999997
C      54.356349999999992     47.751500000000000     48.784399999999998
C      53.929450000000003     48.431000000000004     47.553499999999993
C      52.546849999999992     48.841499999999989     47.279800000000002
C      47.911749999999998     46.826400000000000     51.520599999999995
C      46.232250000000008     48.287500000000001     52.563499999999998
C      46.175449999999998     46.727300000000000     52.000499999999995
C      54.394649999999999     46.716200000000001     50.781500000000001
C      41.529049999999998     48.606599999999993     44.910199999999996
C      43.145250000000004     46.651299999999999     43.223599999999998
C      41.887150000000005     45.869199999999999     43.749199999999995
C      44.059350000000009     46.945999999999998     44.670499999999997
C      41.849050000000005     45.903199999999998     45.346100000000000
C      42.596950000000007     48.412500000000001     45.813600000000001
C      43.105050000000006     46.875000000000000     45.830500000000001
C      43.154849999999996     49.556300000000000     46.522100000000002
C      43.604150000000004     46.508499999999998     47.081899999999997
C      44.351650000000006     49.039000000000009     47.145800000000001
C      44.518050000000002     47.580099999999995     47.391100000000002
H      47.191249999999997     49.502600000000008     46.987900000000003
H      50.785049999999998     47.494399999999999     51.284299999999995
H      49.842650000000006     48.702300000000001     46.685299999999991
H      44.165750000000003     47.387899999999995     49.818800000000003
H      44.334750000000000     49.927500000000002     49.367899999999999
H      55.455749999999995     47.588000000000001     49.227899999999998
H      54.638050000000007     48.594600000000007     46.846499999999999
H      52.060850000000002     49.106800000000000     46.310800000000000
H      48.413950000000000     45.829900000000002     51.430900000000001
H      48.575450000000004     47.318500000000000     52.350800000000000
H      45.634650000000008     48.383800000000001     53.556400000000004
H      47.359949999999998     48.767499999999998     52.376299999999993
H      45.546549999999996     45.882300000000001     52.141799999999996
H      44.973349999999996     51.138900000000000     47.906600000000005
H      43.602249999999998     45.763200000000005     42.546900000000001
H      42.658650000000009     47.857199999999999     42.443599999999996
H      41.010550000000009     46.321899999999999     43.222600000000000
H      41.944850000000002     44.878999999999998     43.366099999999996
H      45.088949999999997     46.340699999999998     44.838400000000000
H      44.464750000000009     48.027600000000000     44.518899999999995
H      41.538849999999996     44.861100000000000     45.708599999999997
H      40.925650000000005     46.421199999999999     45.814999999999998
H      42.905050000000003     50.528300000000002     46.337799999999994
H      44.143950000000004     45.585400000000000     47.240199999999994
H      45.289150000000006     49.574500000000008     46.619899999999994
H      45.427950000000010     47.264699999999998     48.191099999999999
O      55.064250000000001     46.094299999999997     51.512700000000002
O      42.080650000000006     47.562500000000000     52.250399999999992
O      40.544250000000005     48.428400000000003     44.360900000000001
