19

C      47.922011999999988     46.007099999999994     47.138649999999991
C      46.929565000000004     47.158700000000003     46.648749999999993
C      48.113813999999991     47.466499999999996     47.732849999999999
C      47.395764999999983     47.769299999999994     48.958150000000003
C      49.440644999999996     48.023899999999998     47.413849999999996
C      47.898679999999999     48.974800000000009     49.626350000000002
C      49.669544999999999     49.299700000000009     47.999849999999995
C      48.906355000000005     49.796900000000001     49.262850000000000
C      46.341665000000013     46.905999999999999     49.479150000000004
H      48.381539999999987     45.740699999999997     46.106049999999996
H      46.747865000000004     46.997799999999998     45.457149999999999
H      45.934564999999992     47.301200000000001     47.194749999999999
H      49.762234999999997     47.842900000000000     46.457449999999994
H      47.471064999999989     49.408400000000000     50.542850000000001
H      50.289534999999987     49.981699999999996     47.494649999999993
H      49.209024999999997     50.738300000000002     50.115349999999992
H      45.710465000000013     47.171100000000003     50.289450000000002
H      46.339065000000012     45.777600000000000     49.095050000000001
H      48.048390999999995     45.261699999999998     47.945949999999996
