22

C      47.918569999999995     47.480350000000001     45.357149999999997
C      46.578330000000001     48.317850000000000     45.758850000000010
C      48.986249999999998     46.696150000000010     46.365749999999998
C      47.309430000000006     49.252150000000007     46.786649999999995
C      48.688050000000004     47.469150000000006     47.715550000000000
C      47.716710000000006     48.468650000000004     48.010750000000002
C      49.227050000000006     46.778950000000002     48.944249999999997
C      47.466480000000004     48.781250000000007     49.500650000000000
C      48.816249999999997     46.821950000000008     50.218650000000004
C      48.056610000000006     48.009149999999998     50.497950000000003
H      47.724410000000006     46.817749999999997     44.466149999999999
H      45.812449999999998     47.833050000000007     46.409950000000009
H      48.872850000000000     48.124150000000007     45.077249999999999
H      46.719830000000002     50.177550000000004     47.039450000000002
H      46.140799999999999     48.736449999999998     45.064050000000002
H      48.721750000000000     45.822449999999996     46.505349999999993
H      50.187550000000002     47.110250000000001     46.223050000000001
H      48.151049999999998     49.606150000000007     46.252250000000004
H      49.823350000000005     45.901150000000008     49.097750000000005
H      46.689959999999999     49.576749999999997     49.708349999999996
H      48.891850000000005     46.025550000000003     50.976050000000001
H      47.662330000000004     48.091250000000009     51.533850000000001
