56

C      46.168449999999993     46.982849999999985     48.907899999999998
C      46.076749999999997     47.356849999999994     50.359500000000004
C      47.355249999999991     51.558550000000011     47.428800000000003
C      46.898449999999997     52.012349999999998     48.783899999999996
C      46.363949999999996     47.866250000000008     47.812700000000000
C      45.830849999999998     48.790149999999997     50.502000000000002
C      47.132950000000001     50.172650000000004     47.206200000000003
C      46.011650000000003     51.215750000000000     49.729700000000001
C      46.339449999999992     49.369749999999996     48.178999999999995
C      46.011450000000004     49.809450000000012     49.493599999999994
C      46.462049999999998     45.489949999999993     48.849600000000002
C      45.870049999999999     44.488649999999993     49.810200000000002
C      45.650649999999999     45.069850000000002     51.182399999999994
C      45.843449999999997     46.465050000000005     51.447099999999999
C      48.012050000000002     52.639850000000010     46.663699999999999
C      47.995750000000008     53.926750000000013     47.233200000000004
C      47.755550000000007     54.233249999999998     48.557200000000002
C      47.001049999999999     53.216650000000001     49.390300000000003
C      46.823850000000000     45.039450000000002     47.477899999999998
C      46.997850000000007     43.601849999999999     47.205300000000001
C      46.629950000000001     42.624049999999997     48.173800000000007
C      46.016350000000003     43.110050000000001     49.408200000000001
C      47.278750000000002     45.970150000000004     46.488800000000005
C      46.939650000000000     47.390349999999998     46.426200000000001
C      47.761749999999999     48.213050000000010     45.574300000000001
C      47.713050000000003     49.675750000000008     45.996800000000000
C      46.578449999999997     52.186949999999996     46.167399999999994
C      49.206550000000000     47.832650000000001     45.620200000000004
C      49.801749999999991     47.221850000000003     44.330499999999994
C      47.229950000000002     48.432550000000006     44.077099999999994
C      45.649250000000002     41.805149999999998     50.303699999999999
H      45.952550000000002     49.223150000000004     51.392100000000006
H      45.964750000000002     51.797950000000000     50.730700000000006
H      45.608750000000001     44.625349999999997     52.202900000000007
H      45.832949999999997     47.072650000000010     52.489399999999996
H      48.823149999999991     52.244150000000005     46.092099999999995
H      48.265949999999997     54.653649999999999     46.364399999999996
H      47.791750000000000     55.092150000000004     48.963100000000004
H      46.533549999999998     53.669850000000011     50.397299999999994
H      47.299750000000010     43.281449999999992     46.187900000000006
H      46.332749999999997     41.652450000000002     47.809199999999997
H      47.964149999999997     45.807549999999992     45.638299999999994
H      48.335650000000001     50.022649999999999     45.283399999999993
H      46.365050000000004     51.473750000000010     45.372000000000007
H      45.729849999999999     52.997249999999994     46.155800000000006
H      49.525050000000000     47.160749999999993     46.566300000000005
H      49.724250000000005     48.726349999999996     46.015999999999998
H      50.878149999999998     46.966650000000001     44.628999999999998
H      49.790349999999997     48.040750000000003     43.663999999999994
H      49.543649999999992     46.249349999999993     43.934199999999997
H      46.100450000000002     48.488450000000000     44.253599999999999
H      47.593950000000000     47.511250000000004     43.510600000000004
H      47.649949999999997     49.322850000000003     43.719600000000007
H      45.121850000000002     40.907849999999996     49.736200000000004
H      45.197350000000000     42.003749999999997     51.369300000000003
H      46.719749999999998     41.572249999999997     50.409699999999994
