6

C      47.807299999999998     47.610999999999983     47.465249999999990
C      48.143400000000000     48.247900000000001     48.585649999999994
H      48.373499999999993     47.595500000000001     46.622850000000000
H      46.920500000000004     47.659199999999998     46.972149999999999
H      49.079499999999996     48.404499999999999     48.872949999999989
H      47.503000000000000     48.359099999999998     49.377150000000000
