22

C      46.409749999999988     46.184000000000005     47.934399999999997
C      47.537649999999992     45.960599999999999     46.841899999999995
C      46.738049999999994     47.287900000000008     49.088600000000000
C      49.852950000000000     47.020300000000006     47.213999999999999
C      48.137849999999993     47.680000000000007     48.522000000000006
C      48.422049999999992     47.238600000000005     47.287099999999995
C      49.090949999999999     48.812700000000007     49.123000000000005
C      48.235749999999989     48.597600000000000     46.893500000000003
C      49.468349999999994     49.978600000000000     48.289099999999991
C      49.200150000000001     49.819800000000001     46.904499999999999
H      46.243649999999995     45.207400000000007     48.356600000000000
H      45.511749999999999     46.445599999999999     47.319900000000004
H      48.219749999999998     45.089500000000001     47.014600000000002
H      46.947349999999993     46.311900000000009     45.890500000000003
H      46.160949999999993     47.224100000000007     49.982999999999990
H      46.294649999999997     48.620800000000003     48.980400000000003
H      50.488250000000001     47.685200000000009     46.656599999999997
H      50.351649999999999     45.959699999999998     47.031500000000008
H      49.234949999999991     48.318600000000004     50.109499999999997
H      47.397449999999999     48.790800000000004     46.111900000000006
H      49.846849999999996     50.910499999999999     48.669399999999996
H      49.282249999999998     50.530900000000003     46.102999999999994
