22

C      45.917829999999995     47.312559999999991     49.104949999999988
C      46.791609999999991     46.196779999999997     49.388149999999996
C      45.748530000000002     47.817619999999998     47.644050000000007
C      48.184649999999991     47.278659999999995     49.438950000000006
C      47.157460000000000     48.573020000000007     47.460049999999995
C      48.362949999999998     48.421320000000001     48.411150000000006
C      47.469449999999995     49.407019999999996     46.390550000000005
C      49.596649999999997     49.072119999999998     48.159850000000006
C      48.854149999999990     50.009619999999998     46.193150000000003
C      49.952950000000001     49.952819999999996     46.982650000000007
H      44.868449999999996     47.116809999999994     49.387850000000000
H      46.063099999999991     48.393120000000003     49.521349999999998
H      46.787039999999990     45.209679999999999     48.779650000000004
H      46.586369999999988     45.963729999999998     50.278050000000007
H      45.051159999999996     48.723419999999997     47.661349999999999
H      45.625670000000000     46.976679999999995     46.899649999999994
H      48.325350000000000     47.644939999999998     50.527550000000005
H      49.102549999999994     46.689349999999997     49.261150000000001
H      46.590959999999995     49.531119999999994     45.620350000000002
H      50.473050000000001     48.751919999999991     48.784949999999995
H      49.338650000000001     50.790320000000001     45.472449999999995
H      51.131550000000004     50.276919999999997     46.881249999999994
