47

C      49.464699999999986     46.989894999999997     46.952900000000000
C      48.224400000000003     47.606135000000002     47.534600000000005
C      47.478499999999997     45.862525000000005     49.763799999999996
C      49.730599999999995     45.640135000000001     48.748500000000000
C      50.546599999999998     46.237975000000006     47.664099999999998
C      47.347899999999996     46.743015000000000     48.591500000000003
C      49.593299999999999     44.707205000000002     51.202999999999996
C      49.180499999999995     45.707895000000001     50.143899999999995
C      48.194900000000004     45.399934999999999     48.821800000000003
C      49.650800000000004     47.562025000000006     45.539999999999999
C      49.096800000000002     48.836765000000000     45.066799999999994
C      48.241900000000001     49.516555000000011     45.916900000000005
C      47.537999999999997     48.931175000000010     47.097400000000000
C      51.651899999999998     45.686795000000004     46.974100000000000
C      51.735799999999998     45.821025000000006     45.537200000000006
C      50.769700000000000     46.647955000000003     44.824400000000004
C      45.816400000000002     47.471415000000007     48.957100000000004
C      45.726399999999998     48.946735000000004     48.868299999999998
C      46.484600000000000     49.642915000000002     47.899300000000004
C      51.489500000000007     47.512915000000007     48.545800000000007
C      45.041100000000000     47.142215000000000     47.516100000000002
C      44.231099999999998     49.419674999999998     49.153799999999997
C      48.225499999999997     51.061185000000009     46.421600000000005
C      46.375500000000002     49.368125000000006     50.217599999999997
H      46.714799999999997     45.168405000000000     50.156699999999994
H      49.370000000000005     49.407875000000004     44.199900000000007
H      52.455399999999997     45.202945000000000     47.329100000000004
H      51.333799999999997     46.473255000000002     43.877199999999995
H      52.651799999999994     45.332195000000006     44.814000000000000
H      45.427400000000006     47.001775000000002     49.907299999999999
H      45.991500000000002     50.363885000000010     47.241300000000003
H      52.036199999999994     46.977545000000006     49.407599999999995
H      51.116200000000006     48.464025000000007     49.074900000000007
H      52.432500000000005     47.829075000000003     48.185600000000001
H      45.749300000000005     47.677445000000006     46.816300000000005
H      45.183000000000007     45.955205000000007     47.541400000000003
H      44.097700000000003     47.757504999999995     47.360099999999996
H      43.348200000000006     48.662275000000001     49.384999999999998
H      43.957999999999998     49.878834999999995     48.277400000000007
H      43.846400000000003     50.251114999999999     49.660599999999995
H      48.479900000000001     51.803884999999994     45.600900000000003
H      48.827500000000001     51.230085000000003     47.213199999999993
H      47.393699999999995     51.673884999999999     46.807300000000005
H      45.622000000000000     49.093365000000006     51.021499999999996
H      47.203100000000006     48.494585000000001     50.332799999999999
H      46.438599999999994     50.453964999999997     50.266100000000002
O      49.795900000000003     44.196115000000006     52.122800000000005
