22

C      46.133150000000001     47.802999999999997     47.037049999999994
C      45.600949999999997     47.355300000000007     48.304849999999995
C      47.689149999999998     47.304600000000001     46.535450000000004
C      46.220950000000002     48.206499999999998     49.486250000000005
C      48.318949999999987     47.366199999999999     47.928050000000006
C      47.730850000000004     47.978400000000001     49.143650000000001
C      49.693950000000001     47.340200000000003     47.643350000000005
C      48.684450000000012     48.803500000000007     49.934850000000004
C      50.591650000000001     47.722299999999997     48.675249999999998
C      50.102450000000005     48.710000000000001     49.739749999999994
H      46.033050000000003     48.920499999999997     47.157350000000001
H      45.423150000000007     47.737299999999998     46.330350000000003
H      44.390550000000005     47.401199999999996     48.248349999999995
H      45.731549999999999     46.259200000000000     48.708250000000000
H      47.521950000000004     46.234400000000001     46.383350000000000
H      47.752450000000010     47.717100000000009     45.339649999999999
H      45.614649999999997     49.103299999999997     49.501049999999999
H      46.256450000000001     48.095900000000007     50.660350000000001
H      50.034350000000003     46.920899999999996     46.664949999999997
H      48.381550000000004     49.765599999999999     50.473450000000007
H      51.609449999999995     47.705000000000005     48.495650000000005
H      50.616050000000001     49.526100000000007     50.103150000000007
