20

C      47.890149999999998     46.280299999999997     49.841899999999995
C      49.011050000000012     46.494700000000009     48.882100000000008
C      46.716250000000002     47.254900000000006     49.566800000000001
C      47.412350000000004     49.830100000000002     48.507599999999996
C      47.369650000000000     47.950699999999998     48.146600000000007
C      48.571850000000012     47.336900000000000     47.814999999999998
C      47.016550000000002     49.154100000000000     47.300800000000010
C      49.290149999999997     47.731499999999997     46.815300000000008
C      47.903450000000007     49.500199999999992     46.056600000000003
C      49.140250000000002     49.082899999999995     46.057600000000008
H      48.028350000000003     45.640600000000006     50.722700000000003
H      50.018950000000004     45.738200000000006     48.872900000000001
H      45.762150000000005     46.774300000000011     49.834800000000001
H      46.995650000000005     47.974699999999999     50.366200000000006
H      46.767550000000000     49.857600000000005     49.474000000000004
H      48.281750000000002     50.278499999999994     48.336200000000005
H      45.994350000000004     49.373199999999997     47.120699999999999
H      50.237849999999995     47.296700000000001     47.326700000000002
H      47.914250000000010     50.359399999999994     45.518000000000001
H      49.748750000000001     49.552899999999994     45.277299999999997
