21

C      49.336849999999984     45.937099999999987     47.224749999999986
C      47.894449999999999     45.869899999999994     48.127949999999998
C      49.748550000000002     47.464499999999994     47.333650000000006
C      47.493450000000003     47.799500000000002     46.502750000000006
C      48.446549999999995     48.149899999999995     47.435649999999995
C      47.542749999999991     47.289399999999993     47.928350000000009
C      48.699449999999992     49.530499999999996     48.101349999999996
C      46.389850000000003     47.699099999999994     48.889650000000003
C      46.513449999999999     49.029899999999991     49.182850000000002
C      47.634949999999996     49.771599999999999     49.072950000000006
H      50.147149999999989     45.216699999999996     47.248350000000002
H      49.375149999999998     45.598700000000001     46.206249999999997
H      48.168849999999999     45.788999999999994     49.217550000000003
H      47.168249999999993     45.302500000000002     47.586650000000006
H      50.404249999999998     47.680299999999995     48.214550000000003
H      50.290050000000001     47.863799999999991     46.254350000000002
H      46.421050000000001     47.366599999999998     46.704549999999998
H      49.586849999999991     50.039399999999993     47.951750000000004
H      45.595750000000002     47.136499999999991     49.643749999999997
H      45.660649999999997     49.267900000000004     49.793750000000003
H      47.867550000000001     50.783300000000004     49.435950000000005
