22

C      46.582349999999998     49.226149999999990     46.913350000000001
C      45.283349999999999     48.918050000000008     47.477249999999998
C      46.560350000000000     46.831550000000007     48.919750000000008
C      45.574050000000000     47.268850000000000     47.645050000000012
C      47.882649999999998     48.498450000000005     47.531250000000000
C      47.845749999999995     47.473050000000001     48.466250000000002
C      49.283349999999999     48.818749999999994     47.184550000000002
C      48.894649999999999     47.016549999999995     49.206250000000011
C      50.421149999999997     48.442650000000000     47.891750000000002
C      50.275350000000003     47.500950000000003     48.944050000000004
H      46.557050000000004     48.985150000000004     45.847149999999999
H      46.995750000000001     50.300349999999995     47.090050000000005
H      45.407950000000000     49.504350000000002     48.518150000000006
H      44.620149999999995     49.158450000000002     46.492750000000001
H      46.494649999999993     47.089349999999996     50.152850000000001
H      46.644049999999993     45.699650000000005     48.916250000000005
H      44.665750000000003     46.691249999999997     47.748350000000002
H      46.080449999999999     46.896749999999997     46.594549999999998
H      49.557850000000002     49.435350000000014     46.377250000000004
H      48.585350000000005     46.465750000000000     50.049450000000007
H      51.379850000000005     49.010750000000002     47.712650000000011
H      51.184250000000006     47.117850000000004     49.472050000000010
