22

C      48.730849999999990     50.024449999999995     48.999699999999990
C      49.763650000000005     48.829149999999998     49.328000000000003
C      47.420049999999996     49.705550000000002     48.571699999999993
C      50.011649999999996     48.349850000000004     47.882000000000005
C      47.277049999999996     48.442350000000005     47.566599999999994
C      48.641250000000007     47.944850000000002     47.322800000000001
C      46.172249999999998     48.026049999999998     46.770899999999997
C      48.826850000000000     46.632150000000003     46.724000000000004
C      46.361250000000005     46.690350000000002     46.189999999999998
C      47.593250000000005     46.019350000000003     46.325199999999995
H      49.225649999999995     50.935249999999996     48.287199999999999
H      48.713649999999994     50.844549999999998     49.644599999999997
H      49.606749999999998     48.224249999999998     50.299400000000006
H      50.869149999999998     48.751649999999998     49.731400000000008
H      46.748150000000003     49.389850000000003     49.370300000000000
H      46.869650000000000     50.459350000000001     47.978899999999996
H      50.367349999999995     49.052750000000003     47.404700000000005
H      50.507449999999999     47.443150000000003     47.731200000000001
H      45.130850000000002     48.274450000000002     46.893199999999993
H      49.748349999999995     46.229950000000002     46.596499999999992
H      45.368850000000002     46.454650000000001     45.700599999999994
H      47.838249999999995     45.064750000000004     45.840299999999999
