22

C      49.739614999999993     49.578000000000003     49.247649999999986
C      50.216814999999997     48.353000000000009     48.432149999999993
C      48.338915000000000     49.814800000000005     48.394049999999993
C      49.484814999999998     47.108699999999999     48.079849999999993
C      47.349815000000000     48.592500000000001     48.089749999999995
C      47.892614999999999     47.306899999999999     47.749549999999999
C      45.973325000000003     49.116100000000003     47.812550000000002
C      46.894374999999997     46.357100000000003     47.165449999999993
C      45.416125000000001     48.250600000000006     46.836749999999995
C      45.708554999999997     46.803100000000001     46.430750000000003
H      50.359615000000005     50.597400000000007     49.357349999999997
H      49.822314999999996     49.247799999999998     50.281649999999999
H      51.144114999999999     47.983500000000006     49.053349999999995
H      50.661614999999998     48.680500000000009     47.514449999999997
H      48.871114999999996     50.354799999999997     47.381649999999993
H      47.811014999999998     50.655599999999993     48.987349999999992
H      49.672114999999998     46.245000000000005     48.827950000000001
H      50.027514999999994     46.619300000000010     47.342349999999996
H      45.707234999999997     50.131100000000004     48.377349999999993
H      47.028514999999999     45.344400000000007     47.196150000000003
H      44.855885000000001     49.098399999999998     46.360149999999990
H      45.188064999999995     46.261000000000010     45.718350000000001
