22

C      46.653099999999988     46.540499999999994     49.929799999999993
C      48.195999999999998     46.617100000000001     50.191800000000001
C      46.176999999999992     47.522700000000007     48.760100000000001
C      49.241999999999990     46.794300000000000     48.939899999999994
C      47.342299999999994     48.087899999999998     47.979600000000005
C      48.750100000000003     47.715300000000006     47.886600000000001
C      46.952699999999993     49.344699999999996     47.318899999999999
C      49.422099999999986     48.278299999999994     46.759500000000003
C      47.687799999999996     49.807499999999997     46.137299999999996
C      49.035499999999999     49.321700000000000     45.877099999999999
H      46.133099999999999     46.364700000000006     50.915099999999995
H      46.543799999999990     45.571900000000007     49.371400000000001
H      48.517899999999997     45.547699999999999     50.511399999999995
H      48.540099999999995     47.309500000000007     51.027500000000003
H      45.538699999999992     48.154500000000006     49.431500000000000
H      45.509799999999998     46.928400000000003     48.120000000000005
H      49.050199999999997     45.701299999999996     48.405000000000001
H      50.290999999999997     47.003800000000005     49.251800000000003
H      45.814599999999999     49.554000000000002     47.550200000000004
H      50.490200000000002     48.069200000000002     46.806799999999996
H      47.250100000000003     50.452300000000001     45.420600000000000
H      49.510099999999994     49.787399999999998     44.972499999999997
