22

C      47.299649999999993     48.630599999999987     45.339949999999995
C      46.688450000000003     47.461900000000000     45.863349999999997
C      48.492450000000005     49.211399999999998     46.257149999999996
C      47.232749999999996     46.610100000000003     47.105949999999993
C      48.696550000000002     48.701599999999999     47.731449999999995
C      48.149149999999999     47.318100000000001     48.161749999999998
C      49.648350000000008     49.292000000000002     48.562150000000003
C      48.573149999999998     46.804400000000001     49.476550000000003
C      49.719850000000001     48.924499999999995     49.954850000000000
C      49.066649999999996     47.736499999999992     50.422750000000008
H      46.652950000000004     49.208799999999997     44.756349999999998
H      48.026749999999993     48.446899999999999     44.443750000000001
H      46.135449999999999     46.664400000000001     45.136449999999996
H      45.738749999999996     47.801599999999993     46.446849999999998
H      47.933850000000007     50.167600000000007     46.629849999999998
H      49.514350000000000     49.697099999999992     45.847749999999998
H      47.949349999999995     45.833600000000004     46.774249999999995
H      46.300750000000001     46.312799999999996     47.750150000000005
H      49.956550000000007     50.139200000000002     48.208650000000006
H      48.131650000000008     45.832399999999993     49.858850000000004
H      50.261250000000004     49.469099999999997     50.746849999999995
H      49.308149999999998     47.460499999999996     51.556249999999999
