22

C      45.546149999999983     48.360250000000001     46.918849999999992
C      48.620049999999992     49.172750000000008     49.398450000000004
C      46.848349999999996     48.184350000000009     46.154050000000005
C      48.146949999999990     47.736050000000006     49.833649999999999
C      48.003349999999998     48.311750000000004     47.108849999999997
C      47.668850000000006     48.439850000000007     48.485149999999997
C      47.895650000000003     46.991050000000001     46.346250000000005
C      49.234350000000006     49.048850000000002     46.848149999999997
C      49.438450000000003     46.937049999999999     45.877749999999999
C      50.175049999999999     48.095250000000007     46.110050000000008
H      45.386749999999992     49.481049999999996     46.984249999999996
H      44.659549999999996     47.977350000000001     46.502550000000006
H      48.171849999999992     49.687049999999999     50.301549999999999
H      49.804450000000003     49.126249999999999     49.098750000000003
H      46.817650000000000     48.795050000000003     45.161449999999995
H      45.474449999999990     47.998649999999998     47.879449999999999
H      49.133249999999990     47.229849999999999     49.632250000000006
H      47.761150000000001     47.758250000000004     50.838550000000005
H      47.631850000000000     46.096950000000007     46.842050000000008
H      49.441249999999997     49.949849999999998     47.450449999999996
H      49.795050000000003     46.050150000000002     45.360549999999996
H      51.340450000000004     48.541449999999998     46.032550000000008
