5

C      47.874649999999995     48.019500000000001     48.326200000000000
H      47.321950000000001     47.096199999999996     48.738199999999999
H      48.041349999999994     47.647300000000001     47.214300000000001
H      47.117350000000002     48.903800000000004     48.496299999999998
H      48.882649999999998     48.197800000000001     48.785699999999999
