23

C      50.302434999999988     48.909599999999990     49.426749999999998
C      48.896595000000005     49.379500000000007     50.210050000000010
C      49.718164999999999     47.506100000000004     48.810850000000002
C      47.841464999999999     48.222099999999998     50.396749999999997
C      47.973934999999997     47.372300000000003     49.161749999999998
C      47.222255000000004     47.479900000000001     48.036250000000010
C      47.398364999999998     46.905099999999997     46.688240000000008
C      46.264004999999997     48.571500000000000     47.904650000000004
C      46.687094999999999     47.853600000000000     45.700090000000003
C      45.885694999999998     48.669400000000003     46.477519999999998
H      47.953554999999994     46.194400000000002     49.280050000000003
H      50.641135000000006     48.509999999999998     50.402450000000002
H      50.826835000000003     49.642099999999999     48.869950000000003
H      48.334405000000004     50.058599999999998     49.482150000000004
H      49.300184999999999     49.844300000000004     51.137550000000005
H      49.908474999999996     47.299700000000001     47.747050000000002
H      50.479735000000005     46.967500000000001     49.339350000000010
H      46.656014999999996     47.878799999999998     50.332949999999997
H      48.052424999999999     47.772300000000001     51.381649999999993
H      48.113124999999997     45.941400000000002     46.700200000000009
H      46.032655000000005     49.260399999999990     48.856050000000010
H      46.763334999999998     47.808399999999999     44.618350000000007
H      45.173164999999997     49.518999999999998     46.216329999999999
