10

C      48.222290000000001     48.520233999999995     47.025199999999998
C      49.212589999999992     47.858454000000002     47.808500000000002
C      47.916889999999995     47.963864000000001     48.409399999999998
C      46.836690000000004     48.786583999999998     47.963199999999993
C      46.564790000000002     47.420093999999999     48.885299999999994
H      50.212510000000009     47.330134000000001     47.939000000000000
H      46.302189999999996     49.190924000000010     47.168399999999998
H      48.639189999999999     49.553334000000000     46.435300000000005
H      46.363689999999991     46.446666000000000     48.356699999999996
H      45.787489999999991     47.535823999999998     49.564699999999995
