22

C      50.109299999999990     49.932249999999989     47.739350000000002
C      50.245800000000003     48.934150000000002     48.988950000000003
C      48.836500000000001     49.259549999999997     47.038449999999997
C      50.019800000000004     47.476750000000003     48.914450000000002
C      47.880900000000011     48.517850000000003     47.866550000000004
C      48.451300000000003     47.336250000000000     48.375850000000000
C      46.452800000000011     48.653449999999999     48.040450000000007
C      47.715500000000006     46.127549999999999     48.555549999999997
C      45.591800000000006     47.525449999999999     48.544449999999998
C      46.318300000000008     46.236350000000002     48.869649999999993
H      49.736600000000010     50.801450000000003     47.992350000000002
H      50.915800000000004     50.086550000000003     47.159950000000009
H      49.605500000000006     49.472850000000001     49.907249999999991
H      51.421300000000002     48.744450000000001     49.245849999999990
H      49.403400000000005     48.251950000000001     46.736150000000009
H      48.628900000000002     49.599950000000000     46.092750000000009
H      50.512300000000010     46.906050000000000     48.031450000000007
H      50.066800000000001     46.943550000000002     49.857450000000000
H      45.879200000000012     49.325350000000000     47.529350000000008
H      48.201599999999999     45.198549999999997     48.637850000000000
H      44.578699999999998     47.898849999999996     48.438749999999999
H      45.504200000000012     45.456750000000000     48.946250000000006
