22

C      46.911949999999990     49.586149999999989     48.451499999999989
C      46.063549999999999     48.821849999999991     49.401799999999994
C      48.159549999999996     48.869749999999996     47.891300000000001
C      47.047149999999995     47.575449999999996     49.590400000000002
C      49.592949999999995     47.308449999999993     49.248900000000006
C      48.397149999999996     47.524049999999995     48.618399999999994
C      50.356850000000001     46.319550000000000     48.381000000000000
C      47.923849999999995     47.262149999999998     47.399099999999997
C      50.061050000000002     46.240549999999992     46.932999999999993
C      48.866049999999994     46.747549999999997     46.372799999999998
H      46.181449999999998     50.231249999999996     47.802199999999999
H      47.419149999999995     50.459150000000001     49.090999999999994
H      45.014649999999996     48.629249999999992     49.031800000000004
H      46.048449999999995     49.051849999999995     50.741500000000002
H      50.340249999999997     48.031549999999996     49.416399999999996
H      49.149849999999994     49.484849999999994     47.806399999999996
H      46.694550000000000     46.518149999999999     49.466999999999999
H      47.133850000000002     47.546549999999996     50.715400000000002
H      50.985350000000004     45.540849999999999     48.441299999999998
H      46.867649999999998     47.464749999999995     46.708199999999998
H      50.832850000000001     46.045649999999995     46.047299999999993
H      48.626249999999992     46.602649999999990     45.258499999999998
