36

C      47.779649999999990     47.241499999999995     45.371134999999995
C      48.749450000000003     46.660499999999999     46.616324999999996
C      50.171149999999990     46.304200000000002     46.265864999999998
C      50.338249999999995     45.546800000000005     44.636775000000000
C      46.187449999999998     48.243000000000009     51.094835000000010
C      45.597450000000002     49.255499999999998     49.876635000000000
C      46.844850000000001     47.074100000000001     50.424235000000003
C      45.435650000000003     50.060200000000009     47.423345000000005
C      46.289049999999996     47.897800000000004     48.092634999999994
C      46.240549999999999     49.286600000000000     48.515234999999997
C      46.793149999999997     46.650800000000004     48.943135000000005
C      47.521149999999999     49.022899999999993     47.864735000000003
C      48.337849999999996     46.403199999999998     48.088434999999997
C      48.689749999999997     47.774000000000001     47.463785000000001
H      46.119949999999996     50.445099999999996     46.545585000000003
H      49.728450000000002     44.916800000000002     44.073464999999999
H      47.615649999999995     46.380000000000003     44.921255000000002
H      46.758850000000002     47.748500000000007     45.366585000000001
H      48.300149999999995     48.052999999999997     44.588365000000003
H      50.241849999999992     45.417900000000003     46.980264999999996
H      50.880850000000002     46.886400000000002     46.862485000000000
H      50.829649999999994     46.423500000000004     43.997064999999999
H      51.495150000000002     44.893400000000000     44.562365000000000
H      47.088949999999997     48.831699999999998     51.313634999999998
H      45.678849999999997     47.867600000000003     52.002935000000001
H      45.764149999999994     50.429500000000004     49.885835000000000
H      44.504849999999998     48.939099999999996     49.717935000000004
H      47.974249999999998     46.832500000000003     50.882034999999995
H      46.578749999999999     46.147400000000005     50.944435000000006
H      45.044449999999998     51.106600000000000     47.678535000000004
H      44.834550000000000     49.316000000000003     46.840145000000000
H      46.186149999999998     45.660700000000006     48.918835000000001
H      47.838450000000002     49.458900000000000     48.851734999999998
H      49.058249999999994     45.692099999999996     48.597434999999997
H      49.691049999999997     48.047300000000000     48.027335000000001
H      45.503849999999993     47.654200000000003     47.234024999999995
