22

C      48.951799999999992     46.217399999999991     47.070039999999992
C      49.518500000000003     47.334900000000005     46.161079999999998
C      48.903100000000009     46.446200000000005     48.519660000000002
C      49.072500000000005     48.700900000000004     46.696910000000003
C      47.907000000000011     47.518100000000004     48.799000000000007
C      47.944299999999998     48.658900000000003     47.839269999999999
C      46.944500000000005     47.764499999999998     49.906740000000013
C      47.020300000000006     49.721000000000004     47.518750000000011
C      46.262900000000002     49.000600000000006     49.808940000000007
C      46.070300000000003     49.938400000000001     48.617990000000006
H      49.112200000000001     45.155699999999996     46.788310000000010
H      47.892900000000012     46.167699999999996     46.847589999999997
H      49.297100000000000     47.195800000000006     45.111959999999996
H      50.588600000000000     47.225899999999996     45.871180000000010
H      49.914300000000011     46.297100000000000     48.978410000000011
H      48.742900000000006     45.675700000000006     49.303520000000006
H      49.794000000000011     49.221500000000006     46.892809999999997
H      48.514600000000002     49.201400000000007     45.835419999999999
H      47.010500000000008     47.392400000000009     50.888040000000004
H      47.215500000000006     50.522599999999997     46.907510000000002
H      45.411400000000000     49.156800000000004     50.541640000000001
H      45.569299999999998     50.844300000000004     48.682180000000002
