22

C      49.834069000000000     49.801249999999989     48.292749999999991
C      48.194620000000008     50.121349999999993     47.749850000000002
C      48.305320000000016     48.397649999999999     50.412350000000004
C      46.960420000000006     46.753449999999994     45.168150000000004
C      47.840420000000016     48.292349999999999     49.197050000000004
C      48.777020000000007     48.817049999999995     47.894950000000001
C      46.586120000000008     47.628650000000000     48.772550000000003
C      48.684820000000016     48.012850000000000     46.740150000000000
C      46.287620000000011     47.153949999999995     47.433650000000000
C      47.399120000000032     47.250149999999998     46.601649999999999
H      50.686280000000004     49.936650000000000     47.493450000000003
H      50.106970000000004     49.607650000000000     49.183049999999994
H      47.519120000000008     50.280050000000003     48.601249999999993
H      47.611420000000024     50.253549999999990     46.810549999999999
H      47.986520000000027     47.956149999999994     51.378250000000001
H      49.284319000000004     48.926249999999996     50.522750000000002
H      46.937620000000017     45.719949999999997     45.070950000000003
H      45.821620000000017     47.133949999999999     45.041449999999998
H      45.978320000000018     47.455050000000000     49.639750000000006
H      49.062480000000008     48.279550000000000     45.954250000000002
H      45.313719999999996     46.866450000000000     47.063250000000004
H      47.830520000000028     47.093149999999994     44.621749999999999
