22

C      48.489068499999995     48.978549999999998     45.670449999999988
C      47.633368499999989     47.746150000000000     45.859649999999995
C      49.097568499999994     49.265950000000011     47.006449999999994
C      48.959568499999989     46.672250000000005     47.711350000000003
C      48.620268499999995     48.121250000000003     48.212849999999996
C      47.666068499999994     47.157150000000001     47.202249999999999
C      48.269468500000002     48.325450000000004     49.594349999999999
C      46.585568499999994     46.464150000000004     47.819849999999995
C      47.095768499999991     47.624150000000000     50.216649999999994
C      46.506368499999994     46.597350000000006     49.289750000000005
H      47.961168499999999     49.876349999999995     45.372849999999993
H      48.923568500000002     49.012950000000011     44.676750000000006
H      47.988968499999999     47.089150000000004     45.073050000000002
H      46.708868499999994     47.820550000000004     45.188449999999996
H      50.170331500000003     49.168950000000002     46.977349999999994
H      49.287579499999993     50.165450000000000     47.090550000000000
H      48.796168499999993     45.902950000000004     48.441849999999995
H      49.740454499999998     46.715150000000001     47.025950000000002
H      48.752468499999992     49.091350000000013     50.161849999999994
H      45.829668499999997     45.834550000000000     47.269050000000000
H      46.967668500000002     47.580450000000006     51.323249999999994
H      46.030268499999991     46.069950000000006     50.123250000000006
