43

C      48.629699999999985     43.878299999999996     50.137400000000000
C      48.667900000000003     46.731200000000008     49.933600000000006
C      50.088999999999999     44.349000000000004     50.923400000000008
C      50.186899999999994     47.881200000000000     47.323600000000006
C      49.793899999999994     44.583700000000000     49.583900000000007
C      49.678700000000006     45.977499999999999     49.167500000000011
C      50.515799999999999     43.877000000000002     48.382400000000011
C      50.696699999999993     46.724800000000002     48.365800000000000
C      51.384900000000002     44.552500000000002     47.382899999999999
C      51.505600000000001     45.871200000000009     47.479599999999998
C      46.820999999999998     47.366199999999999     45.606800000000000
C      48.998599999999996     46.965100000000000     46.761500000000005
C      48.163600000000002     47.931699999999999     45.932800000000007
C      47.485699999999994     51.348600000000012     48.548800000000007
C      46.980099999999993     48.528700000000008     46.360300000000002
C      46.490799999999993     49.961700000000000     46.745400000000011
C      45.124499999999998     50.075099999999999     46.972700000000010
C      47.392799999999994     51.117600000000003     47.276299999999999
C      44.923900000000003     51.435900000000011     47.449800000000003
C      46.283599999999993     52.110300000000002     47.909200000000006
H      48.464799999999997     42.917400000000008     49.541500000000006
H      47.669399999999996     44.555900000000001     50.909800000000011
H      48.579700000000003     47.876800000000003     50.081499999999998
H      47.967399999999998     46.389299999999999     50.639500000000005
H      50.358499999999992     43.400700000000008     51.333100000000009
H      49.813600000000008     45.253500000000010     51.550300000000000
H      49.813999999999993     48.822300000000006     47.867700000000006
H      51.086699999999993     47.921600000000005     46.568800000000003
H      50.596599999999995     42.826100000000004     48.399999999999999
H      51.327399999999997     47.396700000000003     49.185600000000001
H      51.675100000000000     43.811000000000000     46.456400000000009
H      52.122600000000006     46.360999999999997     46.872900000000008
H      46.287399999999991     46.547199999999997     45.987100000000005
H      46.500199999999992     47.115800000000000     44.449700000000000
H      48.088499999999996     46.000900000000009     47.463600000000007
H      49.367699999999999     46.119900000000008     46.172600000000010
H      48.789400000000001     48.745300000000007     45.423400000000008
H      47.059799999999996     50.863599999999998     49.336199999999998
H      48.546099999999996     51.358200000000004     48.851500000000009
H      44.305499999999995     49.514200000000002     46.576100000000004
H      47.987299999999991     51.725900000000003     46.426700000000004
H      43.877399999999994     52.087399999999995     47.324400000000004
H      46.115299999999991     53.173899999999996     48.073500000000003
