5

C      48.015499999999989     48.087499999999991     47.759649999999986
H      47.485200000000006     47.060899999999997     47.318949999999994
H      48.329000000000008     47.696700000000000     48.834750000000000
H      47.170900000000003     48.939100000000003     47.807549999999992
H      48.829099999999997     48.493400000000001     47.165250000000000
