5

C      47.682549999999992     48.245599999999996     48.001799999999996
H      47.360750000000003     48.825299999999991     48.986199999999997
H      47.423450000000003     47.055500000000002     47.661299999999997
H      48.686050000000002     48.727499999999999     47.668400000000005
H      47.313949999999998     48.944499999999998     47.013800000000003
