6

C      47.709099999999992     47.824949999999994     47.402499999999989
C      48.286000000000001     48.201650000000001     48.582000000000001
H      47.701499999999996     48.560150000000000     46.565400000000004
H      47.621300000000005     46.729050000000001     46.858200000000004
H      48.378699999999995     47.505749999999999     49.434599999999996
H      48.265799999999999     49.270949999999999     48.935799999999993
