24

C      47.033149999999992     49.650199999999991     47.286199999999994
C      46.037050000000001     49.850399999999993     45.894599999999997
C      47.442949999999989     47.256999999999998     46.472499999999997
C      49.976649999999999     48.044300000000000     47.344800000000006
C      47.368649999999995     48.150699999999993     47.779200000000003
C      48.598749999999988     47.361499999999999     47.582400000000007
C      46.573249999999994     47.533400000000000     48.827399999999997
C      49.014149999999994     46.226199999999999     48.363000000000000
C      47.030349999999991     46.629700000000000     49.763099999999994
C      48.337349999999994     46.032499999999999     49.602999999999994
H      46.350749999999998     48.997000000000000     45.278000000000006
H      50.218249999999991     48.557099999999998     46.414500000000004
H      47.952049999999993     49.889499999999998     47.095500000000001
H      46.935349999999993     50.506600000000006     48.035700000000006
H      46.366949999999996     50.829200000000000     45.583100000000002
H      45.155149999999999     49.555599999999998     46.116699999999994
H      47.893349999999991     47.876599999999996     45.542800000000000
H      47.186649999999993     46.259899999999995     46.569299999999998
H      49.698749999999997     48.937500000000000     47.954999999999998
H      50.844850000000001     47.507199999999997     47.719999999999999
H      45.510149999999989     47.995699999999999     49.100499999999997
H      49.788149999999995     45.560399999999994     48.112199999999987
H      46.498550000000002     46.167499999999997     50.721999999999994
H      48.716249999999995     45.170800000000000     50.269400000000005
