116

C      47.259799999999998     50.165049999999994     42.609199999999987
C      46.383600000000008     51.372050000000009     42.773800000000001
C      47.528799999999997     52.855749999999993     38.519799999999996
C      48.018599999999999     50.386749999999999     41.206899999999997
C      46.618900000000004     52.776850000000003     42.218200000000003
C      48.573299999999996     51.925750000000001     38.886900000000004
C      46.609800000000000     53.098050000000008     39.548099999999998
C      48.155999999999999     51.592149999999997     40.505400000000002
C      47.093899999999998     52.777850000000001     40.893599999999999
C      46.892000000000003     48.805549999999997     43.260299999999994
C      45.896999999999998     49.028449999999999     44.316399999999994
C      42.857199999999999     47.495150000000002     45.246099999999991
C      45.847400000000000     50.464750000000002     43.867899999999999
C      45.377299999999998     48.377749999999999     45.520699999999998
C      49.307300000000005     51.798450000000010     41.315000000000005
C      49.743900000000004     51.641650000000006     38.274700000000003
C      51.140800000000006     48.932049999999997     56.287399999999998
C      52.201400000000000     48.800849999999997     55.280499999999996
C      46.523299999999999     49.847549999999998     48.202700000000000
C      43.732800000000005     50.202350000000003     46.813899999999997
C      47.827400000000004     49.728149999999999     48.742399999999996
C      49.677799999999998     48.913150000000002     56.400200000000005
C      51.983700000000006     49.871150000000000     54.188499999999998
C      44.442100000000003     51.387450000000008     47.298200000000001
C      47.236799999999995     52.087049999999998     51.367699999999992
C      48.398299999999999     52.674050000000001     50.946899999999992
C      48.407299999999999     50.832450000000001     54.698500000000003
C      50.330700000000000     51.295749999999998     53.182300000000005
C      44.752500000000005     52.195349999999998     48.512599999999999
C      49.574400000000004     50.168250000000000     55.324400000000004
C      50.631099999999996     50.344850000000001     54.414499999999997
C      47.143599999999999     51.019249999999992     55.441899999999997
C      44.978699999999996     52.579450000000001     49.877800000000001
C      48.314000000000000     52.340949999999999     52.301499999999997
C      48.960100000000004     51.414250000000003     53.285199999999996
C      45.964599999999997     52.051250000000003     50.852600000000002
C      50.699000000000005     52.547750000000001     51.269900000000000
C      51.431300000000000     51.886650000000003     52.209299999999992
C      52.781700000000008     51.503650000000000     52.835000000000001
C      53.033200000000001     50.211250000000000     53.431099999999994
C      48.827000000000005     47.707349999999998     56.966100000000004
C      49.923400000000008     45.236249999999998     57.503499999999995
C      51.060300000000005     46.036149999999999     57.419800000000002
C      52.269300000000008     48.143250000000002     56.662500000000001
C      52.346300000000006     46.844650000000001     57.325299999999991
C      54.418600000000005     49.768549999999998     53.408999999999999
C      44.750599999999999     48.935549999999999     46.744300000000003
C      44.043399999999998     47.868150000000000     45.990699999999997
C      42.268999999999998     48.748249999999999     45.116800000000005
C      42.827500000000008     49.982650000000000     45.696400000000004
C      48.761699999999998     47.841749999999998     55.390999999999998
C      47.465399999999995     47.779350000000001     57.621599999999994
C      49.659200000000006     46.620649999999998     57.593699999999991
C      45.650200000000005     50.993150000000007     48.163000000000004
C      44.536600000000000     52.522849999999998     51.299199999999992
C      45.538599999999995     48.551250000000003     48.043900000000001
C      44.277300000000004     52.287349999999996     46.060099999999998
C      42.566200000000002     52.467550000000010     45.864399999999996
C      41.888600000000004     51.231549999999999     45.438899999999997
C      42.273699999999998     53.574450000000006     45.050499999999992
C      44.498700000000007     48.581850000000003     49.270800000000001
C      41.538400000000003     53.494349999999997     46.410999999999994
C      49.872800000000005     43.969250000000002     56.927299999999995
C      47.193700000000000     50.133650000000003     54.127800000000001
C      50.776900000000005     42.437750000000001     57.094900000000003
H      41.176600000000001     48.740450000000003     44.672400000000003
H      47.641300000000008     53.143650000000001     37.460000000000001
H      48.443000000000005     49.471550000000001     40.815999999999995
H      45.893700000000003     53.517950000000006     42.496500000000005
H      45.775500000000001     54.020249999999997     39.580599999999997
H      45.008500000000005     50.890949999999997     44.313399999999994
H      47.516399999999997     47.276049999999998     41.709499999999998
H      49.150200000000005     51.972549999999998     42.445100000000004
H      50.168200000000006     51.014049999999990     41.319499999999998
H      50.214199999999998     51.911350000000006     37.234400000000001
H      50.517600000000009     50.987349999999999     38.763299999999994
H      47.018599999999999     50.308450000000001     56.321999999999996
H      53.612200000000009     52.170450000000002     52.343499999999999
H      53.172400000000003     46.309249999999999     56.943400000000004
H      52.572700000000005     47.040149999999997     58.444899999999997
H      49.261000000000003     47.845750000000002     54.451400000000000
H      47.743600000000008     48.141550000000002     55.337799999999994
H      46.672900000000006     48.386550000000000     56.997499999999995
H      47.431400000000004     47.849249999999998     58.765599999999999
H      46.922000000000004     46.887850000000000     57.259200000000000
H      47.903100000000002     48.630549999999999     49.054300000000005
H      48.723599999999998     50.434350000000002     48.401999999999994
H      43.840700000000005     51.771549999999998     51.700099999999999
H      44.693500000000007     53.479949999999995     51.969799999999999
H      46.035100000000007     47.552349999999997     48.041800000000002
H      44.755400000000002     53.151249999999997     46.246199999999995
H      45.001399999999997     51.760050000000000     45.284100000000002
H      41.422000000000004     51.088050000000003     44.432700000000004
H      41.090200000000003     50.968750000000007     46.232800000000005
H      44.574599999999997     49.711250000000000     49.909299999999995
H      43.557200000000002     48.547449999999998     49.010600000000004
H      45.194700000000005     48.288449999999997     50.058599999999991
H      40.630900000000004     54.135350000000003     46.225800000000000
H      41.888600000000004     53.893650000000001     47.355699999999992
H      49.490299999999998     44.031250000000000     55.948000000000000
H      48.956800000000008     43.425249999999998     57.542499999999997
H      50.527499999999996     41.928449999999998     58.080700000000000
H      47.747999999999998     49.236449999999998     53.728599999999993
H      46.498399999999997     50.838850000000001     53.565800000000003
H      47.696400000000004     53.098250000000000     55.960100000000004
H      51.690999999999995     42.471249999999998     56.626200000000004
H      50.402800000000006     41.864649999999997     56.271599999999999
H      42.996500000000005     45.349849999999996     44.743999999999993
H      46.454200000000007     46.605449999999998     43.187800000000003
H      45.647700000000007     52.693049999999999     55.981800000000000
N      47.345599999999997     47.543849999999999     42.776299999999999
N      46.689900000000002     52.517249999999997     55.491499999999995
O      42.451600000000006     53.856650000000002     43.876799999999996
O      42.342500000000008     46.225050000000003     44.645999999999994
O      55.369099999999996     49.216450000000002     53.451500000000003
O      50.059500000000007     53.079950000000004     50.462100000000000
