22

C      48.800299999999993     49.959074499999986     49.468299999999992
C      49.607599999999991     48.527174499999994     49.415500000000002
C      47.241799999999998     49.847574500000000     48.960700000000003
C      48.586699999999993     47.432774500000001     49.917400000000001
C      46.931100000000001     48.462874499999991     48.251500000000000
C      47.606799999999993     47.195274499999989     48.617800000000003
C      46.180499999999995     48.611774499999989     46.942799999999998
C      47.059899999999999     45.948474499999996     48.048600000000000
C      46.154100000000000     47.490874499999997     46.308300000000003
C      46.648699999999991     46.185474499999991     46.724800000000002
H      49.239799999999988     50.987225500000001     49.089700000000001
H      48.779199999999989     50.003374500000000     50.582999999999998
H      50.528700000000001     48.512074499999990     50.106099999999998
H      49.807999999999993     47.960274499999990     48.450000000000003
H      46.605300000000000     50.581826499999998     48.680499999999995
H      46.846199999999996     49.873874499999992     50.027900000000002
H      49.034399999999991     46.533974499999992     50.007500000000007
H      47.879999999999995     47.631474499999989     50.583100000000002
H      45.674399999999991     49.676774500000001     46.903300000000002
H      47.332299999999989     45.012774499999999     48.522999999999996
H      45.471299999999999     47.642274499999992     45.416899999999998
H      46.387099999999990     45.194074499999992     46.224899999999998
