10

C      46.827949999999987     47.496949999999998     47.343849999999989
C      46.403649999999999     48.192050000000002     48.668950000000009
C      49.382549999999995     46.962350000000001     47.742350000000002
H      46.156750000000002     46.760449999999999     47.123950000000008
H      46.936149999999998     48.359250000000003     46.499250000000004
H      47.156949999999995     48.116149999999998     49.500749999999996
H      45.930449999999993     49.324950000000001     48.476650000000006
H      45.552049999999994     47.787649999999999     49.312849999999997
O      48.214950000000002     46.675049999999999     47.500250000000008
O      50.447950000000006     47.197650000000003     48.286650000000009
