74

C      49.493899999999996     46.055659999999989     47.124699999999990
C      48.738999999999997     47.328519999999997     47.434600000000003
C      46.274700000000003     45.626039999999989     43.495800000000003
C      48.960299999999997     45.127629999999996     46.072000000000003
C      47.716599999999993     47.728259999999992     46.556600000000003
C      47.204900000000002     44.854529999999997     44.086799999999997
C      47.898199999999996     45.695059999999998     45.133400000000009
C      47.237400000000001     46.952749999999980     45.329500000000010
C      50.718299999999992     45.719909999999999     47.653900000000007
C      51.150299999999994     46.455199999999991     48.842100000000002
C      50.453200000000002     47.752549999999999     49.286900000000003
C      49.118000000000002     47.861239999999981     48.866100000000003
C      51.495399999999997     44.576889999999992     47.166100000000000
C      52.754200000000004     44.188049999999990     48.132700000000000
C      53.208800000000004     45.157919999999990     49.039699999999996
C      52.321099999999994     46.215589999999992     49.513700000000000
C      50.988099999999996     43.733359999999990     46.161299999999997
C      49.500800000000005     43.882199999999997     45.802400000000006
C      49.038000000000004     43.022189999999995     44.634600000000006
C      47.463400000000000     43.138199999999998     44.182900000000004
C      47.220999999999997     49.163509999999988     47.162700000000001
C      47.346899999999998     49.688989999999990     48.702100000000002
C      48.600100000000005     49.139099999999999     49.445599999999999
C      49.750300000000003     43.204879999999989     43.360600000000005
C      49.014199999999995     41.510135699999992     45.026100000000000
C      46.481900000000003     42.737039999999993     45.401499999999999
C      45.023800000000001     43.343079999999986     45.242300000000000
C      44.067299999999996     42.624869999999987     44.239199999999997
C      47.953399999999995     47.439809999999994     49.679400000000001
C      47.291699999999999     51.369139999999987     48.805500000000009
C      44.365199999999994     54.075849999999988     48.525999999999996
C      46.349100000000000     52.059949999999986     49.811000000000007
C      44.155099999999997     53.557949999999991     50.099199999999996
C      45.288699999999999     53.055549999999982     49.350999999999999
C      44.701100000000004     54.338649999999987     51.263400000000004
C      43.070799999999998     52.725449999999981     50.496099999999998
C      44.168799999999997     53.886949999999999     52.506200000000007
C      43.123600000000003     53.072849999999988     51.924100000000010
H      45.312000000000005     47.387309999999999     43.924100000000010
H      45.698100000000004     45.216299999999990     42.660200000000003
H      51.130800000000001     48.604059999999990     49.401300000000006
H      53.893700000000003     44.498549999999994     49.798100000000005
H      52.545999999999999     46.535959999999989     50.505400000000009
H      51.378200000000000     42.768749999999997     45.782300000000006
H      47.388600000000004     42.558479999999989     43.197200000000009
H      46.279099999999993     49.199869999999990     46.965500000000006
H      48.201900000000002     49.821069999999992     47.097700000000003
H      46.309499999999993     49.755549999999985     49.493600000000001
H      48.767400000000002     49.727199999999996     50.434800000000010
H      48.203899999999997     40.962049999999991     45.052900000000008
H      49.589899999999993     40.873850000000004     44.502899999999997
H      49.172199999999997     41.191749999999985     46.200500000000005
H      46.884200000000000     43.225319999999996     46.302300000000002
H      46.293200000000006     41.615065999999999     45.582800000000006
H      44.553999999999995     42.985349999999997     46.124099999999999
H      44.860599999999998     44.535349999999994     45.327399999999997
H      43.408999999999999     43.266679999999994     43.554500000000004
H      43.311299999999996     41.867556999999991     44.707200000000000
H      44.404599999999995     41.970783999999995     43.478300000000004
H      47.418299999999995     46.588269999999980     49.132800000000003
H      48.353599999999993     47.062889999999996     50.607700000000008
H      48.163000000000004     51.741749999999982     48.580900000000000
H      46.618299999999998     51.759149999999991     48.082500000000010
H      44.169999999999995     53.581049999999991     47.495800000000003
H      44.832500000000003     55.126149999999996     48.602300000000000
H      45.596299999999992     51.101559999999992     50.262000000000000
H      46.578700000000005     52.618949999999984     50.731499999999997
H      45.445299999999996     55.101449999999986     50.842300000000009
H      42.404199999999996     51.983349999999987     49.914900000000003
H      44.493599999999994     54.287749999999988     53.482399999999998
H      42.106299999999997     52.554949999999991     52.426200000000009
N      46.290799999999997     46.871179999999995     44.181300000000007
O      50.416400000000003     43.226319999999987     42.517600000000002
O      53.195600000000006     43.318049999999999     47.447200000000009
