22

C      49.542199999999994     49.225449999999988     46.535150000000002
C      49.519999999999996     47.886049999999990     45.912750000000003
C      49.790299999999988     49.049249999999994     48.106750000000005
C      48.507999999999996     46.849349999999994     46.794749999999993
C      48.296599999999998     48.727149999999995     48.501449999999991
C      47.681200000000004     47.380949999999991     47.993350000000007
C      47.405500000000004     49.283050000000003     49.630949999999999
C      46.695399999999992     46.659549999999996     48.800649999999990
C      46.572500000000005     48.416249999999991     50.394750000000002
C      46.056500000000000     47.147749999999995     49.969750000000005
H      48.702200000000005     49.768049999999995     46.375450000000001
H      50.131399999999999     50.025250000000000     46.082650000000001
H      49.063900000000004     48.141149999999996     44.908050000000003
H      50.715400000000002     47.465549999999993     45.922849999999997
H      50.319900000000004     48.166949999999993     48.394549999999995
H      50.052999999999997     50.025250000000000     48.399150000000006
H      49.231600000000000     46.173249999999996     47.395749999999992
H      47.647499999999994     46.359449999999995     46.424050000000008
H      47.712900000000005     50.221850000000003     49.995649999999998
H      46.514600000000002     45.778149999999997     48.350250000000003
H      45.973600000000005     48.907549999999993     51.091949999999997
H      45.284599999999998     46.464549999999996     50.441949999999991
