22

C      47.101099999999988     50.226949999999988     49.633649999999996
C      48.920299999999997     50.064249999999994     47.805750000000003
C      48.334400000000002     49.626349999999995     49.209950000000006
C      48.222200000000001     49.176849999999995     46.612350000000006
C      47.338899999999995     48.469850000000001     49.606450000000002
C      47.263099999999994     47.669649999999997     48.248750000000001
C      46.763000000000005     46.303449999999991     48.377350000000007
C      48.101200000000006     47.740349999999999     46.962950000000006
C      46.950599999999994     45.607750000000003     47.008550000000000
C      47.681700000000006     46.493949999999991     46.268850000000000
H      47.297400000000010     50.621649999999995     50.668949999999995
H      46.453599999999994     50.758249999999997     48.691050000000004
H      48.711400000000012     51.223149999999997     47.344050000000003
H      50.092200000000005     50.017549999999993     47.789050000000003
H      47.578700000000012     47.708949999999994     50.425750000000008
H      49.087600000000009     49.907649999999997     50.005750000000006
H      47.189700000000002     49.559049999999992     46.303950000000000
H      48.938800000000001     49.353349999999999     45.588750000000005
H      45.907799999999995     45.891349999999996     49.006150000000005
H      49.268500000000003     47.287050000000001     47.111750000000001
H      46.164299999999997     44.776850000000003     46.779650000000004
H      48.025300000000001     46.203049999999998     45.331050000000005
