22

C      48.203749999999999     47.057749999999999     49.676749999999991
C      48.282049999999998     48.364850000000004     50.555549999999997
C      46.627250000000004     48.853949999999998     48.026750000000000
C      49.080449999999999     49.465149999999994     49.667050000000003
C      47.759650000000008     47.856849999999994     48.160850000000003
C      48.310249999999996     49.045450000000002     48.308250000000001
C      47.670749999999998     46.739249999999998     46.980449999999998
C      49.088450000000009     49.244650000000007     47.067149999999998
C      48.051550000000006     47.385950000000008     45.816949999999999
C      48.751950000000008     48.694749999999999     45.742950000000000
H      49.269050000000007     46.598349999999996     49.706249999999997
H      47.387250000000009     46.387650000000008     50.019050000000000
H      48.988950000000003     47.948350000000005     51.229749999999996
H      47.322350000000000     48.494349999999997     50.961150000000004
H      45.926150000000007     48.840649999999997     48.843750000000000
H      46.236050000000006     49.102950000000007     46.944550000000000
H      50.073849999999993     49.063150000000007     49.801749999999998
H      48.851750000000010     50.341849999999994     50.061950000000010
H      47.512550000000005     45.658150000000006     47.131549999999997
H      49.509550000000004     50.281250000000000     46.732849999999999
H      47.953050000000005     46.779350000000008     44.770250000000004
H      49.215649999999997     49.211449999999999     44.958950000000002
