23

C      48.219252499999989     50.078099999999992     49.799562999999992
C      47.062442499999996     47.627599999999994     50.136162999999996
C      45.663632499999999     45.690399999999997     45.950762999999995
C      47.172492499999997     49.134099999999997     49.254463000000001
C      45.897092499999999     46.765899999999995     46.701712999999998
C      47.814302499999997     48.436399999999999     47.997443000000004
C      47.151582499999996     47.444899999999997     47.075622999999993
C      48.234192499999992     46.678599999999996     46.390372999999997
C      49.270202499999996     48.780499999999996     47.827093000000005
C      49.673602500000001     46.915099999999995     46.370793000000006
C      50.184602499999997     48.126399999999997     47.085222999999999
H      47.313032499999998     46.801399999999994     49.337423000000001
H      47.913752500000001     47.418199999999999     50.805193000000003
H      46.497372499999997     45.293799999999997     45.194806999999997
H      44.825907500000000     45.066899999999997     45.984872999999993
H      46.070522499999996     47.292600000000000     50.426023000000001
H      46.156412499999995     49.408499999999997     49.181353000000001
H      45.084537499999996     46.963799999999999     47.590262999999993
H      48.340382499999997     45.747899999999994     45.916882999999999
H      50.013432499999993     49.229599999999998     48.651792999999998
H      50.431932499999988     46.224699999999999     45.918362999999999
H      51.174092500000000     48.379899999999999     46.994052999999994
O      48.807022499999995     50.933100000000003     50.107912999999996
