22

C      50.615050000000004     48.471289999999989     47.003399999999992
C      50.734850000000009     47.135079999999995     47.485199999999992
C      49.523250000000004     49.632530000000003     47.671100000000010
C      49.382350000000002     46.347130000000000     47.719200000000001
C      48.374150000000000     48.895049999999998     48.244000000000000
C      48.295850000000002     47.413860000000000     48.148800000000008
C      47.057050000000004     49.181370000000001     48.743400000000008
C      47.114850000000004     46.884819999999998     48.836800000000004
C      45.123950000000008     47.606339999999996     49.817900000000002
C      46.351250000000007     48.060109999999995     49.263200000000005
H      44.305650000000000     48.428449999999998     49.837900000000005
H      50.732450000000000     48.455109999999998     45.880299999999998
H      51.621950000000012     48.874619999999993     47.232900000000001
H      51.060850000000002     47.254169999999995     48.692399999999992
H      51.694350000000000     46.467559999999999     47.222700000000003
H      49.337250000000012     50.755730000000000     47.448700000000002
H      50.069350000000000     50.048429999999996     48.496500000000005
H      49.360450000000000     46.045879999999997     46.838999999999999
H      49.354350000000011     45.244270000000000     48.277000000000001
H      46.612650000000002     50.300730000000001     48.821200000000005
H      46.511550000000000     45.887760000000000     48.760200000000012
H      44.865550000000013     46.698290000000000     50.119700000000002
