22

C      46.576299999999996     49.332999999999991     47.551949999999998
C      47.758700000000005     50.292100000000005     46.978350000000006
C      47.872399999999999     47.999200000000002     49.624250000000004
C      48.889399999999995     49.391800000000003     47.414850000000001
C      47.005000000000010     47.868399999999994     48.332950000000011
C      48.335300000000004     48.098500000000001     47.999450000000010
C      49.351399999999998     46.923000000000002     47.832350000000005
C      46.618500000000012     46.513400000000004     47.850949999999997
C      48.998699999999999     45.560900000000004     47.801650000000009
C      47.643799999999999     45.643500000000003     47.420450000000002
H      46.185900000000004     49.021900000000002     46.488650000000007
H      45.752200000000002     49.984499999999997     48.003349999999998
H      47.507000000000005     51.253799999999998     47.352450000000005
H      47.709900000000005     50.424499999999995     45.862150000000000
H      47.835400000000007     48.916200000000003     50.132150000000010
H      47.975099999999998     47.110199999999992     50.137850000000000
H      49.674599999999998     49.720799999999997     48.204650000000001
H      49.332499999999996     49.168399999999991     46.421050000000008
H      50.346800000000002     47.435199999999995     47.972650000000002
H      45.653199999999998     46.426999999999992     47.757450000000006
H      49.598700000000008     44.746200000000002     47.491750000000010
H      47.195900000000002     44.860399999999998     46.828250000000011
