22

C      48.138449999999992     45.339149999999997     48.269599999999997
C      49.565649999999991     45.618450000000003     48.273000000000003
C      47.165949999999995     46.276250000000005     47.558599999999998
C      49.861350000000002     47.300950000000000     48.763199999999998
C      47.324950000000001     47.832650000000001     47.942399999999999
C      48.534249999999986     48.157750000000007     48.469400000000000
C      46.407250000000005     48.762450000000001     47.444900000000004
C      48.861049999999992     49.602850000000004     48.609999999999992
C      46.696150000000003     50.210250000000002     47.495699999999999
C      47.922650000000004     50.616849999999999     47.984400000000001
H      47.857749999999996     45.230950000000007     49.450800000000008
H      47.858450000000005     44.469350000000006     47.784500000000001
H      49.899349999999984     45.511949999999999     47.361899999999999
H      50.559549999999987     44.977550000000001     48.732800000000005
H      47.099450000000004     46.371750000000006     46.348700000000001
H      46.145749999999992     45.978149999999999     48.127699999999997
H      50.571849999999998     47.430250000000001     47.803600000000003
H      50.458550000000002     47.545749999999998     49.651299999999999
H      45.428150000000002     48.572150000000008     46.942700000000002
H      49.832449999999994     49.969750000000005     48.722099999999998
H      45.988849999999999     50.857250000000008     47.226900000000001
H      48.194549999999992     51.530649999999994     48.011499999999998
