8

C      48.357999999999983     47.790599999999991     48.487099999999998
C      47.215299999999999     48.198400000000007     47.727300000000007
H      48.452299999999994     48.730699999999999     49.220300000000002
H      49.202900000000000     47.483900000000006     47.821800000000003
H      46.797100000000000     49.047899999999998     48.346400000000003
H      46.976500000000001     47.341499999999996     47.174900000000001
H      48.008099999999999     46.952100000000002     49.125499999999995
H      47.326099999999997     48.637600000000006     46.779699999999998
