23

C      48.661599999999986     49.755499999999991     48.382589999999993
C      47.421300000000002     49.917400000000001     49.378059999999998
C      48.975700000000003     47.786400000000000     49.626359999999998
C      46.380099999999999     48.812399999999997     48.642119999999998
C      48.668300000000002     48.246199999999995     48.163530000000002
C      47.342900000000000     47.812700000000000     47.816110000000002
C      49.632300000000001     47.730300000000000     47.118780000000001
C      46.840599999999995     46.768999999999998     46.981670000000001
C      49.199699999999993     46.777799999999999     46.224699999999999
C      47.858999999999995     46.082499999999996     46.311430000000001
H      49.685599999999994     48.494199999999999     50.040460000000003
H      49.700100000000006     50.074900000000000     48.528890000000011
H      48.621600000000001     50.139600000000002     47.339179999999999
H      47.420000000000002     50.014600000000002     50.521960000000000
H      47.106899999999996     50.893400000000000     48.868459999999992
H      48.243099999999998     47.592900000000000     50.409659999999995
H      48.980400000000003     46.695000000000000     49.391560000000005
H      45.779700000000005     49.195299999999996     47.643490000000000
H      45.519999999999996     48.594200000000001     49.212560000000003
H      50.480000000000004     48.345700000000001     47.293950000000002
H      45.877799999999993     46.525099999999995     46.891759999999998
H      49.997399999999999     46.505399999999995     45.478040000000000
H      47.662000000000006     45.106600000000000     45.669640000000001
