21

C      47.885249999999985     50.610669999999999     48.254199999999997
C      47.707750000000004     49.464990000000000     47.754700000000000
C      45.388049999999993     47.469740000000002     47.795000000000002
C      46.101050000000001     44.982669999999999     48.281300000000002
C      47.827249999999992     46.875640000000004     48.428799999999995
C      48.394149999999996     48.305690000000006     48.439700000000002
C      49.819850000000002     48.202550000000002     48.257199999999997
C      46.430549999999997     46.525210000000001     48.000900000000001
C      50.360249999999994     46.854430000000001     48.649799999999999
C      49.040950000000009     46.116950000000003     48.438900000000004
H      47.734150000000000     51.544770000000000     47.649599999999992
H      48.544650000000004     50.457169999999998     49.147400000000005
H      47.255150000000000     49.245610000000006     46.852599999999995
H      44.592349999999996     47.014389999999999     47.123599999999996
H      45.086349999999996     48.399850000000001     48.226200000000006
H      45.153350000000003     45.122760000000000     48.923000000000002
H      46.821950000000001     44.623060000000002     49.030799999999999
H      50.428550000000001     49.037630000000000     48.287899999999993
H      45.499549999999999     44.455230000000000     47.480599999999995
H      51.407650000000004     46.575120000000005     48.515299999999996
H      49.227750000000000     45.090800000000002     48.369799999999998
