21

C      45.416759999999989     47.493849999999995     48.156031999999989
C      46.918501000000006     49.026649999999997     46.571989999999985
C      46.525565000000000     47.370349999999995     49.412549999999996
C      46.367305999999999     47.783749999999991     46.951390000000004
C      48.035610000000005     47.189850000000000     49.124619999999993
C      47.837519999999998     47.532949999999992     47.597689999999993
C      49.343720000000005     46.666249999999998     49.573149999999998
C      49.130260000000000     47.960349999999998     46.890389999999982
C      50.521440000000013     47.144849999999998     48.826409999999996
C      50.378290000000000     47.895249999999997     47.588041999999994
H      44.869159999999994     46.547449999999991     48.441399999999987
H      44.552160000000001     48.004349999999995     48.297349999999994
H      47.402730000000005     49.183249999999994     45.516890000000004
H      46.225483199999999     49.727950000000000     47.223442599999998
H      46.409702000000003     48.288249999999998     50.062469999999990
H      46.469695000000002     46.272050000000000     49.651020000000003
H      46.196559999999991     47.028649999999992     46.068090000000012
H      49.443280000000001     46.277650000000001     50.483109999999996
H      49.307990000000004     48.164250000000003     45.874289999999995
H      51.447839999999999     47.356349999999999     49.362769999999998
H      51.064250000000001     48.330549999999995     46.817689999999999
