22

C      45.730799999999988     47.535299999999985     49.323144999999990
C      46.992399999999996     48.027799999999999     50.403544999999994
C      45.963199999999993     48.554000000000002     47.944904999999999
C      48.107899999999994     48.937799999999996     49.694045000000003
C      47.320599999999992     48.210999999999999     47.453845000000001
C      48.551200000000001     48.211900000000000     48.339444999999998
C      47.625200000000000     47.345399999999998     46.275734999999997
C      49.851099999999995     47.690899999999999     48.055495000000001
C      48.978000000000002     46.852900000000005     45.946404999999999
C      50.047899999999991     46.972600000000000     46.851624999999999
H      44.879600000000003     47.760099999999994     49.886344999999999
H      46.180100000000003     46.603700000000003     49.051245000000002
H      47.522799999999997     47.227999999999994     50.928444999999996
H      46.243400000000001     48.543700000000001     51.049745000000001
H      45.834299999999992     49.506699999999995     48.182175000000001
H      45.236699999999992     48.443600000000004     47.068095000000000
H      48.858499999999999     49.381299999999996     50.393045000000001
H      47.574700000000000     49.678200000000004     49.148044999999996
H      46.826999999999991     47.031599999999997     45.603765000000003
H      50.760799999999996     47.743099999999998     49.016745000000000
H      49.310600000000001     46.321799999999996     44.950254999999999
H      51.120399999999997     46.405900000000003     46.903104999999996
