22

C      47.487599999999986     50.559399999999997     48.829649999999994
C      49.069699999999997     50.485499999999995     48.554850000000002
C      46.849999999999994     49.105100000000000     48.443750000000009
C      49.185800000000000     49.470199999999998     47.378349999999998
C      47.429699999999997     47.879500000000000     47.985349999999997
C      48.635400000000004     47.976400000000005     47.288250000000005
C      46.678799999999995     46.666800000000002     48.175449999999998
C      49.331699999999998     46.718200000000003     46.754350000000002
C      47.359999999999999     45.546200000000006     47.628250000000008
C      48.777500000000003     45.509700000000002     47.172750000000008
H      46.911699999999996     50.848800000000004     49.676950000000005
H      47.012199999999993     51.409100000000002     48.097449999999995
H      49.183099999999996     51.571900000000007     48.289749999999998
H      49.630700000000004     50.014699999999998     49.462249999999997
H      46.261099999999999     48.892699999999998     49.241250000000008
H      46.346400000000003     49.378300000000003     47.434550000000002
H      48.812600000000003     49.997800000000005     46.459150000000008
H      50.292699999999996     49.312099999999994     47.135249999999999
H      45.658999999999992     46.474700000000006     48.810649999999995
H      50.341000000000008     46.809199999999997     46.323049999999995
H      46.853799999999993     44.628400000000006     47.468249999999998
H      49.109099999999998     44.428099999999993     47.148150000000001
