15

C      47.714599999999990     48.707999999999984     49.359799999999993
C      46.503090000000000     48.935900000000004     48.713299999999997
C      46.191890000000029     48.624600000000001     47.322799999999994
C      47.420929999999998     48.336500000000001     46.600400000000000
C      48.636940000000010     48.271999999999991     47.328700000000005
C      48.958970000000008     48.540400000000005     48.717999999999996
C      49.812489999999997     47.648499999999999     46.264000000000003
H      47.713871999999995     48.993499999999997     50.567900000000002
H      45.660190000000028     49.030900000000003     49.383100000000006
H      45.298989999999989     47.998199999999997     47.002400000000002
H      47.460358999999997     48.367499999999993     45.492799999999995
H      49.960890000000006     48.391000000000005     49.106800000000000
H      50.701010000000011     47.164800000000000     46.604499999999994
H      49.376840000000001     46.969099999999997     45.432099999999998
H      50.162939999999992     48.359399999999994     45.520400000000002
