22

C      47.320899999999995     46.723749999999988     45.988024999999993
C      46.750600000000006     46.090350000000001     47.167975000000006
C      47.772199999999998     48.241849999999999     46.187045000000005
C      46.408400000000000     47.040750000000003     48.524744999999989
C      48.240400000000008     48.358649999999997     47.629055000000001
C      47.565899999999999     48.037649999999999     48.983595000000001
C      49.393100000000004     48.632050000000007     48.422525000000000
C      47.257000000000005     48.708950000000002     50.193364999999993
C      49.422600000000003     49.703949999999999     49.419734999999996
C      48.283299999999997     49.826250000000002     50.296264999999998
H      46.783000000000001     46.610650000000000     45.185594999999999
H      48.083399999999997     46.128850000000000     45.555434999999996
H      47.615499999999997     45.617849999999997     47.461125000000003
H      45.838300000000004     45.360450000000000     46.876505000000002
H      46.539000000000001     48.405650000000001     46.152785000000002
H      48.424399999999991     48.876549999999995     45.435054999999998
H      45.594000000000008     47.685150000000000     48.291564999999999
H      45.897500000000008     46.495950000000001     49.602514999999990
H      50.325500000000005     48.890949999999997     47.746524999999998
H      46.418499999999995     48.585850000000008     50.814405000000001
H      50.405999999999992     50.315750000000008     49.520085000000002
H      47.609999999999999     50.639550000000000     50.766614999999994
