22

C      46.144149999999989     49.821599999999989     48.167699999999989
C      46.503450000000001     49.295900000000003     49.518299999999996
C      46.094049999999996     48.599099999999993     47.276700000000005
C      48.057850000000002     49.131900000000002     49.736599999999996
C      47.508949999999999     47.953299999999999     47.403700000000001
C      48.386849999999995     48.027799999999999     48.581400000000002
C      48.047550000000001     47.051800000000000     46.356300000000005
C      49.473550000000003     47.125100000000003     48.937200000000004
C      49.102549999999994     46.082300000000004     46.611699999999999
C      49.874549999999999     46.269400000000005     47.826300000000003
H      47.001249999999999     50.619699999999995     47.882199999999997
H      45.220349999999996     50.460900000000009     48.020200000000003
H      45.941850000000002     48.200099999999992     49.641900000000007
H      46.140349999999998     49.967100000000002     50.381000000000000
H      45.750749999999996     48.369399999999999     46.217399999999998
H      45.468050000000005     48.122299999999996     47.697599999999994
H      48.681150000000002     50.072599999999994     49.652900000000002
H      47.993549999999999     48.546599999999998     50.660100000000000
H      47.794950000000000     47.209299999999999     45.339900000000000
H      50.160250000000005     47.391400000000004     49.841600000000000
H      49.663250000000005     45.380300000000005     45.902900000000002
H      50.779650000000004     45.629499999999993     48.275300000000001
