22

C      49.561099999999996     50.099599999999995     48.378649999999993
C      49.714700000000001     48.843100000000000     49.381350000000012
C      48.163300000000000     50.087600000000002     47.468850000000003
C      49.839800000000004     47.343899999999998     48.571349999999995
C      47.760700000000007     48.676099999999998     47.390249999999995
C      48.632399999999997     47.504100000000001     47.617550000000008
C      46.487600000000008     48.409399999999998     46.789550000000006
C      47.947099999999999     46.240100000000005     47.410350000000008
C      45.951600000000006     47.160600000000009     46.392849999999996
C      46.848000000000006     45.939000000000000     46.517750000000007
H      50.522700000000007     50.327199999999998     47.717449999999999
H      49.309599999999996     50.959099999999999     48.918250000000000
H      50.579400000000000     48.923800000000007     50.192549999999997
H      48.762500000000010     48.796500000000002     50.074349999999995
H      48.769700000000007     50.187199999999997     46.644050000000007
H      47.545800000000007     50.977100000000000     47.278450000000007
H      49.812900000000006     46.421900000000001     48.882549999999995
H      50.792099999999998     47.331099999999999     47.980950000000007
H      45.719799999999999     49.132200000000005     46.321349999999995
H      48.065500000000007     45.238700000000001     47.720950000000002
H      45.207900000000002     46.990200000000009     45.807450000000003
H      46.494000000000007     45.022900000000000     46.078649999999996
