5

C      47.683799999999998     48.288849999999989     47.832319999999996
H      48.795000000000002     48.321050000000000     47.609470000000002
H      47.285400000000010     48.414050000000003     48.941310000000001
H      47.260400000000004     47.194749999999999     47.725250000000003
H      47.204999999999998     48.805250000000001     47.058689999999999
