8

C      48.039049999999996     47.567549999999997     48.772099999999995
C      47.784850000000006     48.253950000000010     47.255000000000010
H      47.772649999999999     46.677849999999999     48.202900000000000
H      49.205349999999996     47.665250000000007     49.035899999999998
H      47.338350000000005     47.630749999999999     49.632700000000000
H      46.794650000000004     48.154550000000008     46.941299999999998
H      48.286349999999999     47.964550000000010     46.367300000000000
H      47.902450000000002     49.322150000000001     47.317100000000011
