22

C      49.334999999999994     47.392399999999995     46.629649999999998
C      48.165500000000002     46.543199999999992     45.917649999999995
C      47.142600000000002     48.873699999999992     45.723050000000001
C      46.692999999999998     47.283099999999997     45.914950000000005
C      48.440800000000003     48.066600000000001     47.848950000000002
C      47.469500000000004     48.981599999999993     47.258949999999999
C      48.784500000000001     47.588699999999996     49.220650000000006
C      46.753700000000002     49.726399999999991     48.346750000000000
C      47.862099999999998     48.322399999999995     49.964250000000007
C      47.001199999999997     49.511400000000002     49.712750000000000
H      49.830599999999997     46.425199999999997     46.768950000000004
H      49.995699999999999     47.940999999999995     45.912350000000004
H      48.398899999999998     46.338900000000002     44.920150000000007
H      48.111800000000002     45.572099999999999     46.427149999999997
H      48.031199999999998     49.081299999999992     45.019050000000007
H      46.245899999999999     49.572499999999998     45.346549999999993
H      46.130099999999999     46.798399999999994     45.186549999999997
H      46.004300000000001     47.305299999999995     46.816850000000002
H      49.408700000000003     46.750899999999994     49.441950000000006
H      46.049399999999999     50.427900000000001     47.991950000000003
H      47.915199999999999     48.116399999999992     51.079849999999993
H      46.413200000000003     49.998899999999999     50.552650000000000
