22

C      50.043049999999987     47.121749999999992     49.016549999999995
C      49.079249999999995     47.197550000000000     50.212350000000008
C      50.014249999999997     48.553049999999999     48.210850000000001
C      47.790849999999992     47.143650000000001     49.553050000000006
C      48.590249999999997     48.459150000000001     47.601950000000009
C      47.563949999999991     48.468950000000000     48.558850000000000
C      48.311049999999994     48.984850000000002     46.208950000000009
C      46.174449999999993     48.904850000000003     48.193850000000005
C      47.001049999999992     49.367550000000001     46.097250000000010
C      45.858449999999998     49.278849999999998     46.926949999999998
H      51.122950000000003     46.716450000000002     49.446249999999999
H      49.882349999999995     46.267650000000003     48.308850000000000
H      49.209149999999994     46.264249999999997     50.768450000000009
H      49.272949999999994     48.004249999999992     50.903050000000000
H      50.145449999999997     49.388550000000002     48.990850000000002
H      50.816249999999997     48.778849999999998     47.534150000000004
H      46.959949999999992     47.254449999999999     50.270750000000000
H      47.503449999999994     46.095149999999997     48.837850000000010
H      49.173249999999996     49.007349999999995     45.429450000000010
H      45.414049999999996     49.125449999999994     48.796849999999999
H      46.784149999999997     49.904850000000003     45.096950000000000
H      44.877049999999997     49.794050000000006     46.555950000000003
