22

C      47.854109999999991     47.222849999999994     50.403474999999986
C      48.141110000000005     45.940649999999991     49.468074999999999
C      46.578430000000004     48.133949999999999     49.689174999999992
C      48.977110000000003     46.684950000000001     48.273775000000001
C      47.169609999999999     48.613549999999989     48.266174999999990
C      48.358910000000002     48.040250000000000     47.668435000000002
C      46.856710000000000     49.824249999999992     47.600924999999989
C      49.222010000000004     48.141750000000002     46.452174999999997
C      47.510410000000000     50.086349999999996     46.231735000000000
C      48.587409999999998     49.207749999999990     45.690224999999998
H      48.877009999999999     47.588849999999994     50.121775000000000
H      47.600510000000000     46.806349999999995     51.336875000000006
H      47.258410000000005     45.324550000000002     49.156274999999994
H      48.965110000000003     45.426450000000003     49.990375000000000
H      45.930990000000001     48.900649999999999     50.334975000000000
H      45.971870000000003     47.259549999999990     49.323774999999998
H      49.212409999999998     45.917349999999999     47.573965000000001
H      50.069009999999999     46.879350000000002     48.433875000000000
H      46.275010000000002     50.500449999999987     48.005375000000001
H      49.976710000000004     47.530850000000001     46.135305000000002
H      47.038609999999998     50.675449999999998     45.455275000000000
H      49.166609999999999     49.315249999999992     44.663124999999994
