21

C      47.827749999999995     46.641889999999989     49.121350000000000
C      47.211150000000004     46.831069999999997     50.414550000000006
C      48.312449999999998     45.209549999999993     48.523250000000004
C      47.589950000000002     47.066300000000012     45.826450000000008
C      47.940049999999999     47.886950000000013     48.417450000000002
C      48.021150000000006     48.082689999999999     46.952150000000003
C      47.938749999999999     49.295419999999993     49.042150000000007
C      48.365350000000007     49.339630000000000     46.310649999999995
C      48.051150000000007     50.611009999999993     48.487549999999999
C      48.259250000000009     50.501639999999995     47.161249999999995
H      47.396550000000005     45.212879999999998     48.020650000000003
H      47.031250000000000     45.828220000000002     51.148949999999999
H      46.840350000000001     47.622060000000005     51.006349999999998
H      48.561850000000007     44.448869999999999     49.278450000000007
H      49.159649999999999     44.817669999999993     47.884650000000008
H      47.036150000000006     46.297740000000005     46.214650000000006
H      47.044550000000001     47.258210000000005     44.851050000000001
H      47.422150000000002     49.123679999999993     50.021150000000006
H      48.397450000000006     49.470070000000007     45.328649999999996
H      47.947450000000003     51.278149999999997     49.345150000000004
H      48.415250000000000     51.551130000000001     46.640950000000004
