22

C      48.197749999999985     47.484150000000000     50.543149999999997
C      46.863649999999993     46.779750000000007     50.068950000000001
C      49.045250000000010     47.131250000000009     49.071349999999995
C      46.682050000000004     46.969850000000008     48.401449999999997
C      48.095050000000001     47.456550000000007     47.998549999999994
C      48.320549999999997     47.448450000000008     46.575550000000007
C      46.990049999999997     48.516649999999998     48.364249999999998
C      47.513949999999994     48.368049999999997     45.793250000000000
C      46.337949999999992     49.501249999999999     47.576350000000005
C      46.641049999999993     49.445949999999996     46.165149999999997
H      48.624449999999996     46.666049999999998     51.224649999999997
H      48.350450000000009     48.313850000000002     51.210049999999995
H      47.103849999999994     45.735650000000007     50.453550000000007
H      46.071349999999995     47.430850000000007     50.580449999999999
H      49.007750000000001     45.960850000000008     48.935950000000005
H      50.184350000000009     47.198850000000007     48.930850000000007
H      46.097949999999997     46.594549999999998     47.685050000000004
H      49.355149999999995     47.125650000000007     46.230050000000006
H      47.493349999999992     49.058049999999994     49.250249999999994
H      47.827249999999992     48.433750000000003     44.775350000000003
H      45.815649999999991     50.264349999999993     47.891249999999999
H      46.223050000000001     50.048950000000005     45.432550000000006
