22

C      45.940539999999991     48.615749999999998     49.023424999999989
C      46.257139999999993     47.022649999999999     48.993265000000001
C      46.818740000000005     49.282049999999998     47.778784999999999
C      47.752139999999997     46.770550000000000     49.317025000000001
C      47.854039999999998     48.151750000000007     47.427995000000003
C      48.579239999999999     47.197450000000003     48.243585000000003
C      48.877839999999992     48.584150000000008     46.467165000000001
C      49.866995000000003     46.523550000000000     48.219605000000001
C      50.152047000000010     47.933650000000000     46.384174999999999
C      50.636768000000004     46.645250000000004     47.046464999999998
H      45.968739999999997     49.106350000000006     50.051655000000004
H      44.889039999999994     48.745450000000005     48.594985000000001
H      45.790440000000004     46.557450000000003     48.181004999999999
H      45.582139999999995     46.602249999999998     49.838784999999994
H      47.294740000000004     50.225250000000003     48.170225000000002
H      45.956440000000001     49.369250000000008     47.067844999999998
H      47.835440000000006     47.188450000000003     50.381785000000001
H      47.950540000000004     45.774749999999997     49.426795000000006
H      48.583939999999998     49.652650000000008     45.762864999999998
H      50.138798000000008     45.934950000000001     49.083824999999997
H      50.698260000000005     48.571050000000000     45.618214999999999
H      51.110960000000006     45.927149999999997     46.538624999999996
