5

C      47.933549999999997     47.974599999999995     48.184199999999997
H      48.670350000000006     47.251300000000008     47.513700000000000
H      47.206850000000010     48.477600000000002     47.580800000000004
H      48.809750000000001     48.880800000000001     48.352800000000002
H      47.190249999999999     47.119199999999999     48.486300000000000
