22

C      48.604639499999983     46.075249999999997     49.338549999999991
C      47.222439499999993     46.843449999999997     49.067349999999998
C      49.617439500000003     46.396750000000004     48.030149999999999
C      46.482639499999991     46.721349999999994     47.558549999999997
C      48.959039500000003     47.366149999999998     46.890149999999998
C      47.465139499999992     47.727150000000002     46.977350000000001
C      49.715439500000002     48.355350000000001     46.132449999999999
C      46.953639499999994     49.055850000000014     46.574050000000000
C      48.952539500000000     49.525050000000000     45.807450000000003
C      47.685939500000003     50.159050000000001     46.018749999999997
H      48.420639499999993     44.928750000000001     49.555449999999993
H      49.026939499999997     46.116850000000007     50.267949999999999
H      46.301539500000004     46.638650000000005     49.670050000000003
H      47.114139499999993     47.847250000000010     48.752150000000000
H      50.628688500000010     46.590050000000012     48.356749999999998
H      50.000677500000002     45.617150000000002     47.342050000000000
H      45.283639499999992     47.122149999999998     47.754249999999999
H      46.645139499999999     45.815550000000002     47.121250000000003
H      50.716360500000008     48.002550000000006     45.732050000000001
H      45.903539499999994     49.240750000000013     46.689650000000000
H      49.568639500000003     50.411350000000006     45.748549999999994
H      47.156239499999998     51.071249999999999     45.780050000000003
