22

C      48.801399999999987     48.373799999999989     50.017249999999990
C      49.644099999999995     49.552859999999995     49.200749999999992
C      48.251499999999993     47.248934999999996     49.040450000000000
C      46.172299999999993     48.664209999999997     46.150050000000000
C      46.672399999999996     47.514161999999999     46.988350000000004
C      47.273300000000006     47.888718999999995     48.269150000000003
C      46.454399999999993     46.552090000000007     48.349749999999993
C      46.706299999999999     49.248359999999998     48.309649999999998
C      46.456699999999998     45.817790000000016     46.812049999999992
C      46.263899999999992     49.777929999999998     47.002249999999997
H      47.852199999999996     48.919230000000006     50.042849999999994
H      50.037599999999998     50.491309999999991     49.726649999999999
H      49.056100000000001     49.854319999999994     48.373349999999995
H      50.493700000000004     49.331480000000006     48.693449999999991
H      48.831299999999999     46.226190000000017     49.369049999999994
H      49.287099999999995     48.042677999999995     50.886749999999999
H      47.318299999999994     45.312090000000005     46.325250000000004
H      45.710899999999995     48.614129999999996     45.113250000000001
H      45.514899999999997     46.569990000000004     48.976849999999992
H      46.842900000000000     49.923870000000001     49.271350000000005
H      45.506299999999996     45.768189999999990     46.448450000000001
H      45.808800000000005     50.687909999999995     46.727650000000004
