109

C      39.638799999999989     51.673999999999992     50.164599999999993
C      44.268699999999988     50.238700000000001     48.080199999999998
C      45.388699999999993     49.756000000000000     47.244799999999998
C      42.713200000000008     45.402799999999999     47.645699999999998
C      43.735700000000001     45.182200000000002     46.619000000000000
C      43.447700000000005     49.159100000000002     48.530700000000003
C      45.567900000000002     48.423299999999998     46.534299999999995
C      42.789200000000001     46.704999999999998     48.428400000000003
C      44.681800000000003     46.221899999999998     46.080999999999996
C      43.748799999999996     47.698799999999999     48.074300000000001
C      44.620200000000004     47.407599999999995     46.929700000000004
C      43.817700000000009     51.642599999999995     48.384599999999999
C      45.101099999999995     52.470099999999995     48.308199999999999
C      46.390499999999996     52.078399999999995     47.796299999999995
C      46.311900000000001     50.904499999999999     47.025500000000001
C      41.309300000000000     44.741199999999999     47.609900000000003
C      41.109299999999998     43.558199999999999     46.818700000000000
C      42.268900000000009     43.152000000000001     45.941299999999998
C      43.443999999999996     43.845599999999997     45.931300000000000
C      42.441200000000002     49.498199999999997     49.409100000000002
C      42.009000000000000     50.778599999999997     50.065300000000001
C      42.286200000000001     51.957999999999991     49.191800000000001
C      44.190100000000008     52.594099999999997     47.086599999999997
C      40.668600000000005     50.693300000000001     50.840399999999995
C      45.678800000000003     45.809999999999995     44.954200000000000
C      53.085199999999993     38.643299999999996     46.013500000000001
C      53.618699999999997     38.792999999999999     44.499000000000002
C      52.436200000000007     40.082299999999996     46.256300000000003
C      54.924399999999999     39.837499999999999     44.232599999999998
C      53.601799999999997     40.897599999999997     46.431000000000004
C      54.660400000000003     40.687199999999997     45.428000000000004
C      53.979700000000001     41.672399999999996     47.569899999999997
C      55.848100000000009     41.508899999999997     45.839900000000000
C      54.831899999999997     42.858600000000003     47.570200000000000
C      56.051200000000001     42.623599999999996     46.742500000000000
C      50.684100000000001     42.013500000000001     45.805699999999995
C      51.405999999999999     40.789499999999997     45.245100000000001
C      48.849200000000003     41.633000000000003     44.442500000000003
C      47.114399999999996     45.015300000000003     45.530200000000001
C      48.249500000000005     42.515999999999998     45.948100000000004
C      47.101400000000005     43.538300000000000     46.091100000000004
C      49.445299999999996     42.649099999999997     45.263300000000001
C      46.406300000000002     43.126599999999996     47.181599999999996
C      48.158899999999996     41.455700000000000     47.020400000000002
C      46.976300000000002     41.956499999999998     47.702900000000000
C      46.126199999999997     54.498500000000000     51.669899999999991
C      45.313600000000001     53.710000000000001     50.667300000000004
C      47.447200000000002     55.131000000000007     50.984699999999997
C      45.042700000000004     54.044999999999995     49.117100000000001
C      47.322300000000006     55.463500000000003     49.422300000000000
C      46.140299999999996     54.957200000000000     48.603199999999994
C      45.815599999999996     55.214499999999994     47.265799999999999
C      48.100200000000001     56.370699999999992     48.566399999999994
C      46.570299999999996     56.235499999999995     46.622899999999994
C      47.533499999999997     56.985099999999996     47.332599999999999
H      38.999299999999998     50.996400000000001     49.612099999999998
H      39.155200000000001     52.331300000000006     51.092700000000001
H      46.017600000000009     48.211999999999996     45.581399999999995
H      42.031100000000002     47.131099999999996     49.038800000000002
H      47.278799999999997     52.710100000000004     47.745799999999996
H      47.176200000000001     50.573799999999999     46.575800000000001
H      40.438899999999997     42.855499999999999     47.268599999999999
H      42.238999999999997     42.212899999999998     45.587600000000002
H      41.845599999999997     48.629700000000000     49.957799999999999
H      43.012200000000000     50.814599999999999     50.905999999999999
H      42.243299999999998     52.904999999999994     49.747599999999998
H      41.481099999999998     51.991000000000007     48.359999999999999
H      45.248500000000000     45.040699999999994     44.220800000000004
H      39.990699999999997     52.503400000000006     49.413400000000003
H      40.305000000000000     49.762000000000000     51.289099999999998
H      41.161600000000000     51.137599999999999     51.823799999999999
H      44.233899999999998     43.519100000000002     45.418599999999998
H      45.939900000000002     46.571599999999997     44.351599999999998
H      39.752099999999992     44.403299999999994     48.500499999999995
H      54.034299999999995     38.374600000000001     46.568599999999996
H      52.293199999999999     38.017800000000001     45.956399999999995
H      52.756200000000000     39.167600000000000     43.802799999999998
H      54.060099999999998     38.052900000000001     44.028900000000000
H      51.927000000000000     40.110399999999998     47.227200000000003
H      54.361200000000004     39.966299999999997     43.352399999999996
H      55.915900000000001     39.189799999999998     44.045999999999999
H      53.298800000000000     42.045299999999997     48.157299999999999
H      56.647299999999994     41.271899999999995     45.124800000000000
H      54.450099999999999     43.932299999999998     48.159399999999998
H      57.000700000000002     43.103900000000003     46.654199999999996
H      50.873399999999997     41.855799999999995     46.806199999999997
H      51.764899999999990     41.320099999999996     43.994399999999999
H      50.890700000000002     40.021000000000001     44.734199999999994
H      48.905400000000000     40.540700000000001     44.672100000000000
H      48.246900000000004     41.921100000000003     43.623300000000000
H      47.920600000000000     44.902799999999999     44.822099999999999
H      47.169999999999995     45.715799999999994     46.416599999999995
H      49.738000000000007     43.638500000000001     44.671799999999998
H      45.560899999999997     43.662500000000001     47.570000000000000
H      48.626700000000000     40.394300000000001     47.318400000000004
H      46.220700000000001     41.495899999999999     48.512799999999999
H      46.483199999999997     54.123299999999993     52.647600000000004
H      45.526900000000005     55.333499999999994     52.086099999999995
H      45.981299999999997     52.642699999999998     50.592199999999998
H      44.694700000000005     52.869099999999996     51.136500000000005
H      47.997299999999996     55.823299999999996     51.575399999999995
H      48.178599999999996     54.367399999999996     51.117399999999996
H      44.077399999999990     53.967199999999998     48.744199999999999
H      44.959600000000002     54.652600000000000     46.811399999999999
H      49.015399999999993     56.913899999999991     49.205300000000001
H      46.336999999999996     56.533899999999996     45.636699999999998
H      47.885100000000001     57.982199999999999     46.997300000000003
O      43.546700000000008     53.109400000000001     46.265400000000000
O      40.497199999999999     44.992699999999999     48.547499999999999
