40

C      46.997299999999996     49.784296999999995     45.258019999999981
C      49.225799999999992     47.772396999999998     51.997179999999986
C      46.520099999999999     48.534196999999992     45.956559999999989
C      48.634200000000007     46.759696999999989     51.089589999999987
C      47.964699999999993     50.425396999999990     46.435519999999997
C      48.837400000000002     49.266096999999988     51.881209999999996
C      47.175899999999999     48.155496999999997     47.246209999999991
C      47.789200000000008     47.116496999999995     49.893639999999991
C      47.531599999999997     51.296996999999990     49.032869999999988
C      47.707400000000007     51.135596999999990     50.546289999999985
C      47.746800000000007     50.414096999999984     47.947899999999990
C      47.945599999999999     49.693896999999993     50.776739999999990
C      47.805299999999988     48.933596999999992     48.284889999999990
C      47.864699999999999     48.628496999999996     49.711419999999990
C      46.841000000000008     46.717096999999995     47.616979999999984
C      47.195700000000002     46.306596999999996     48.975139999999982
C      46.725899999999996     49.859696999999997     43.963023999999990
C      45.884299999999996     48.879496999999986     43.189949999999989
C      45.421400000000006     47.580296999999987     43.787101899999989
C      45.814999999999998     47.501696999999993     45.160389999999985
C      45.708399999999997     46.014896999999991     45.581439999999986
C      45.996200000000002     45.664996999999985     46.936709999999991
C      50.113299999999995     47.008696999999998     52.962619999999987
C      50.250499999999988     45.699496999999994     53.187169999999981
C      49.295600000000007     44.837196999999989     52.489749999999987
C      48.561000000000007     45.354696999999987     51.387209999999982
H      48.992500000000007     49.997096999999997     52.878449999999987
H      47.360799999999998     52.338603000000006     48.890969999999996
H      48.027100000000004     51.899026000000006     51.104829999999978
H      47.078599999999994     45.268296999999990     49.222939999999980
H      47.055700000000002     50.688396999999995     43.414150000000014
H      45.617199999999997     49.035996999999995     42.091750000000005
H      45.026200000000003     46.735196999999985     43.312950000000001
H      45.300399999999996     45.273696999999984     44.944709999999986
H      45.685100000000006     44.564196999999993     47.395229999999991
H      50.475299999999990     47.601096999999996     53.673919999999981
H      50.973799999999997     45.285996999999995     53.908249999999995
H      49.488900000000001     43.661396999999994     52.552989999999980
H      48.012799999999999     44.397496999999987     50.869959999999985
O      48.623199999999997     50.342796999999990     45.450499999999991
