22

C      46.681849999999990     46.526509999999988     49.767599999999995
C      47.339350000000010     47.899619999999999     50.112099999999998
C      46.961150000000004     46.373480000000001     48.116399999999999
C      49.345350000000010     46.718310000000002     47.648900000000005
C      48.128750000000004     47.469120000000004     48.025500000000001
C      48.050849999999997     48.351669999999999     48.885500000000000
C      48.694749999999999     47.690240000000003     46.570999999999998
C      48.880049999999997     49.464610000000008     48.827300000000001
C      49.591450000000002     48.902190000000004     46.225999999999999
C      49.464950000000002     49.732160000000007     47.425899999999999
H      46.663350000000001     45.499319999999997     50.135700000000000
H      45.649650000000001     46.803039999999996     49.789200000000008
H      48.213949999999997     47.811359999999993     50.771000000000001
H      46.625950000000003     48.692729999999997     50.450099999999999
H      46.165350000000004     46.803150000000002     47.442599999999999
H      47.353149999999999     45.323899999999995     48.076599999999999
H      50.350349999999999     47.296710000000004     47.951200000000000
H      49.308050000000009     45.653419999999997     48.059800000000003
H      48.267350000000000     46.954089999999994     45.720800000000004
H      48.784449999999993     50.284600000000012     49.488700000000001
H      49.916049999999998     49.199380000000005     45.228999999999999
H      49.805449999999993     50.676100000000005     46.848700000000001
