22

C      50.183414999999982     46.720149999999997     48.190449999999998
C      49.333914999999990     45.304650000000002     47.856250000000003
C      50.058304999999990     48.008349999999993     47.477249999999998
C      47.850004999999996     45.985050000000001     47.567650000000000
C      48.651824999999988     48.554650000000002     47.462050000000005
C      47.586442999999989     47.527550000000005     47.510050000000007
C      48.225594999999984     49.920150000000007     47.712550000000007
C      46.211674999999985     47.843249999999998     47.695750000000004
C      46.763874999999999     50.182450000000003     47.924850000000006
C      45.771074999999996     49.240650000000002     47.930750000000003
H      49.874324999999985     46.796350000000004     49.587949999999992
H      51.253424999999993     46.508050000000004     48.359849999999994
H      49.338064999999986     44.561350000000004     48.599450000000004
H      49.841344999999990     44.886150000000001     47.144350000000003
H      50.478094999999996     47.990650000000002     46.412050000000008
H      50.795914999999994     48.606849999999994     48.168049999999994
H      47.331897999999995     45.904350000000001     48.576849999999993
H      47.564625999999990     45.562750000000001     46.537850000000006
H      48.949114999999992     50.703550000000007     47.963449999999995
H      45.320475000000002     47.118850000000002     47.582350000000005
H      46.714174999999969     51.438649999999996     47.784049999999993
H      44.746575000000007     49.472749999999998     47.824749999999995
