22

C      50.429549999999992     47.748699999999992     49.238299999999995
C      48.981349999999999     46.923199999999994     49.339099999999995
C      50.157350000000001     48.657600000000002     47.849899999999998
C      49.286050000000003     46.603399999999993     46.684599999999996
C      49.034950000000002     48.055300000000003     47.045200000000001
C      48.422649999999997     47.206999999999994     47.952400000000004
C      48.008550000000000     49.160799999999995     46.721600000000002
C      46.936850000000000     47.000399999999999     47.960600000000007
C      46.679949999999998     49.121699999999990     46.885100000000001
C      46.053249999999998     47.905699999999996     47.413800000000002
H      50.485350000000004     48.377600000000001     50.203700000000005
H      50.965850000000003     46.933700000000002     49.253999999999998
H      49.458750000000002     45.866500000000002     49.305000000000000
H      48.302250000000001     47.341200000000001     50.142100000000006
H      51.085850000000001     48.829599999999999     47.378200000000000
H      49.871350000000000     49.613599999999991     48.076299999999996
H      50.228949999999998     46.136499999999998     46.897399999999998
H      48.685450000000003     46.224499999999999     45.796299999999995
H      48.252549999999999     50.133499999999998     46.119700000000002
H      47.011250000000004     46.071199999999997     48.588100000000004
H      45.902250000000002     49.844499999999996     46.591900000000003
H      44.914149999999999     48.023799999999994     47.173899999999996
