22

C      45.235949999999995     47.678274999999992     48.125199999999992
C      46.033350000000013     47.041735000000003     46.803000000000004
C      46.229050000000001     48.168135000000007     49.079400000000000
C      47.359450000000002     46.400305000000003     47.467599999999997
C      47.686350000000004     48.224864999999994     48.726400000000005
C      48.445650000000001     47.267445000000002     47.850699999999996
C      48.560250000000003     49.233645000000010     49.210299999999997
C      49.847550000000012     46.957194999999999     47.937400000000004
C      50.010650000000012     49.222954999999999     49.126100000000001
C      50.547350000000009     48.139475000000004     48.414300000000004
H      44.702250000000006     46.881875000000001     48.606900000000003
H      44.325850000000003     48.524205000000009     47.863099999999996
H      45.517850000000003     46.325515000000003     46.328800000000008
H      46.308050000000009     47.725504999999998     45.960900000000002
H      45.877150000000000     49.187265000000004     49.440000000000005
H      46.344650000000001     47.473545000000001     50.039099999999998
H      46.825150000000008     45.938155000000002     48.275200000000005
H      47.717750000000002     45.755695000000003     46.654299999999999
H      48.273350000000008     50.244304999999997     49.588200000000008
H      50.324050000000014     46.077245000000005     47.518400000000007
H      50.546750000000003     50.104915000000005     49.358799999999995
H      51.674149999999997     48.170825000000001     48.265099999999997
