22

C      47.933199999999992     49.415949999999995     45.374549999999985
C      48.317099999999996     50.121249999999996     46.714949999999995
C      47.217500000000001     48.017050000000005     45.756250000000001
C      49.140100000000004     49.185750000000006     47.785549999999994
C      47.495599999999996     47.413550000000008     47.239349999999995
C      48.199700000000007     48.012550000000005     48.285050000000005
C      46.798599999999993     46.311350000000004     47.803750000000001
C      48.333399999999997     47.644850000000005     49.735049999999994
C      46.901600000000002     45.967350000000003     49.193750000000001
C      47.451999999999998     46.652450000000002     50.356649999999995
H      48.723200000000006     49.502150000000007     44.664750000000005
H      47.400400000000005     50.204350000000012     44.736349999999995
H      47.769099999999995     50.928750000000015     47.042650000000002
H      49.099599999999995     50.934249999999999     46.485449999999993
H      46.057400000000001     48.081250000000004     46.258950000000006
H      47.050799999999995     47.104650000000007     45.007749999999994
H      49.942599999999999     49.745750000000008     48.630350000000000
H      49.782300000000006     48.721150000000002     47.187149999999995
H      46.246099999999998     45.339650000000006     47.022650000000006
H      49.010400000000004     48.348250000000007     50.176250000000003
H      46.335099999999997     45.065750000000001     49.514549999999993
H      47.129800000000003     46.896550000000005     51.335249999999995
