21

C      45.876834999999986     48.560249999999982     49.837049999999991
C      50.277575000000006     47.051749999999991     49.747749999999996
C      48.970018000000003     47.650749999999995     49.741349999999997
C      45.886035000000000     47.063249999999989     49.215649999999997
C      48.237935000000000     48.110449999999993     48.474449999999997
C      46.727634999999999     48.247949999999996     48.613950000000003
C      48.965448000000002     48.388749999999995     47.292549999999999
C      46.171735000000005     48.983249999999991     47.447550000000000
C      48.262335000000000     48.922249999999998     46.106749999999998
C      46.855634999999999     49.309649999999998     46.235950000000003
H      46.673835000000004     49.242349999999995     49.980249999999998
H      45.229935000000005     49.474449999999997     49.789850000000001
H      50.608135000000011     46.460449999999987     50.665950000000002
H      51.045265000000008     47.406649999999992     49.031750000000002
H      48.587619000000004     47.343049999999998     50.628349999999990
H      46.516735000000004     46.289149999999999     49.628549999999997
H      44.954734999999992     46.900349999999996     48.358750000000001
H      50.014955000000008     48.483249999999991     47.174450000000000
H      45.045735000000001     49.483649999999990     47.652650000000001
H      48.982155000000006     49.304549999999999     45.334049999999998
H      45.985734999999998     49.710850000000001     45.690449999999998
