9

C      49.048274999999997     48.460264999999993     48.744199999999992
C      48.094095000000003     47.229644999999998     48.080800000000004
C      48.891485000000003     47.954815000000004     47.466000000000001
H      46.329885000000019     46.640974999999997     46.889199999999995
H      46.086484999999996     46.833815000000001     48.498899999999999
H      49.430504999999997     49.592685000000003     48.470700000000001
H      49.913515000000004     47.922195000000002     49.204699999999995
H      49.621485000000007     48.499175000000001     46.795300000000005
N      46.837395600000001     46.407314999999997     47.869700000000002
