22

C      47.296199999999985     48.249249999999989     50.354249999999993
C      48.568899999999999     49.262549999999997     50.040450000000000
C      46.777799999999999     46.833149999999996     49.880749999999999
C      49.617800000000003     48.611049999999999     48.956750000000007
C      47.390000000000001     46.749249999999996     48.579450000000001
C      48.640400000000000     47.500549999999997     48.352950000000000
C      46.577500000000001     46.434750000000001     47.438350000000007
C      49.034399999999991     47.516749999999995     46.867150000000002
C      46.874799999999993     46.707749999999997     46.063650000000003
C      48.192099999999996     47.194150000000000     45.739449999999998
H      46.567299999999989     48.891849999999998     50.151350000000001
H      47.573799999999991     48.314149999999998     51.289750000000005
H      49.200299999999999     49.551749999999991     51.000250000000001
H      48.142899999999997     50.160350000000001     49.507849999999998
H      45.679899999999989     46.967750000000002     49.879750000000008
H      46.691299999999998     45.839649999999999     50.272250000000007
H      50.436000000000007     48.067349999999998     49.699149999999996
H      50.327199999999991     49.437849999999997     48.503450000000008
H      45.563999999999993     46.149049999999995     47.658549999999998
H      49.875099999999989     48.129449999999999     46.616750000000003
H      46.309199999999990     46.630949999999999     45.088650000000008
H      48.393299999999996     47.526449999999997     44.710249999999995
