22

C      48.935749999999999     45.462849999999996     48.381899999999995
C      47.530749999999998     45.405050000000003     48.922299999999993
C      48.921650000000000     46.298249999999996     46.988299999999995
C      46.885249999999999     46.759250000000009     49.150799999999990
C      48.886150000000001     47.810749999999999     47.588999999999999
C      47.793149999999997     47.985849999999999     48.448799999999991
C      49.369650000000007     48.729749999999996     46.628000000000000
C      47.354849999999999     49.339650000000006     48.644300000000001
C      48.974050000000005     50.163350000000008     46.949399999999997
C      48.186449999999994     50.409450000000007     48.137199999999993
H      49.116650000000007     44.500150000000005     48.226399999999998
H      49.486750000000001     45.665649999999999     49.266300000000001
H      47.466650000000001     45.139350000000000     50.011299999999991
H      46.897949999999994     44.968350000000001     48.077399999999997
H      49.971850000000003     46.150649999999999     46.693899999999999
H      48.267949999999999     45.793850000000006     46.077299999999994
H      45.879450000000006     47.020250000000004     49.403700000000001
H      47.116450000000000     47.238250000000008     50.017899999999997
H      50.120549999999994     48.532049999999998     45.982100000000003
H      46.501549999999995     49.577650000000006     49.270799999999994
H      49.171450000000007     51.048249999999996     46.385300000000001
H      48.035650000000004     51.499849999999995     48.320499999999996
