16

C      49.936649999999993     48.112344999999998     48.646451499999998
C      48.384450000000001     46.625464999999998     47.757051500000003
C      48.110250000000001     48.090045000000003     47.181441500000005
C      48.615949999999998     47.892935000000001     48.493351500000003
C      47.113050000000001     48.907605000000004     46.597541500000005
C      47.509149999999998     48.048275000000004     49.517561499999999
C      46.197749999999999     49.335994999999997     47.667531499999996
C      46.417850000000001     48.678835000000007     48.997931500000007
H      50.706450000000004     47.752385000000004     48.015281500000000
H      50.062250000000006     48.522904999999994     49.711841499999991
H      47.401249999999997     46.178535000000004     47.341811500000006
H      49.367550000000001     45.985754999999997     47.649331500000002
H      47.265749999999997     49.252915000000002     45.474318499999995
H      47.768949999999997     47.677525000000003     50.525681500000005
H      45.293549999999996     50.014245000000003     47.651941500000007
H      45.385149999999996     49.127504999999999     49.411031500000007
