56

C      47.063399999999994     48.191349999999993     46.857249999999993
C      46.059899999999999     47.584450000000004     49.305150000000005
C      49.301900000000003     48.747349999999997     49.060349999999993
C      47.907499999999999     48.074250000000006     45.812249999999999
C      46.228700000000003     50.350449999999995     53.510449999999999
C      48.047799999999995     49.241150000000005     48.969050000000003
C      49.417000000000002     47.702150000000003     48.118149999999993
C      46.954400000000007     48.455050000000000     48.447650000000003
C      48.388500000000008     47.544150000000002     47.113949999999996
C      45.601300000000009     48.896249999999995     48.938650000000003
C      45.587800000000001     49.666950000000000     51.255950000000006
C      45.351100000000002     50.000450000000001     49.902949999999997
C      45.879599999999996     50.728549999999998     52.182750000000006
C      47.774400000000000     48.184250000000006     44.159550000000003
C      46.379700000000000     47.773049999999998     43.673349999999992
C      50.741299999999995     46.796650000000000     48.299450000000000
C      45.322299999999998     48.433250000000001     44.466249999999995
C      46.331900000000005     48.026650000000004     42.144650000000006
C      45.625200000000007     48.393050000000002     51.738549999999996
C      48.825600000000009     46.775449999999992     53.190450000000006
C      46.189200000000000     44.822649999999996     49.937049999999992
C      46.793400000000005     46.945149999999998     51.425450000000005
C      46.503900000000002     46.311849999999993     50.068750000000001
C      47.153000000000006     46.808250000000001     52.983550000000001
C      47.645700000000005     45.456649999999996     49.533449999999995
C      48.123699999999999     46.256450000000001     51.930349999999997
C      48.799900000000008     45.639550000000000     50.653749999999995
H      49.935800000000000     49.451750000000004     49.608849999999997
H      47.477599999999995     50.101550000000003     49.044149999999995
H      47.194299999999998     47.664050000000003     41.446750000000002
H      45.293400000000005     50.949650000000005     49.538949999999993
H      45.499800000000008     51.699650000000005     51.825349999999993
H      47.872600000000006     49.284549999999996     43.839250000000000
H      48.581299999999999     47.654250000000005     43.612450000000003
H      51.105000000000004     45.953749999999999     47.634449999999994
H      51.791100000000000     47.279849999999996     48.802050000000001
H      50.779399999999995     46.410250000000005     49.428850000000004
H      44.208900000000000     48.027050000000003     44.301150000000000
H      45.506200000000007     48.043850000000006     45.718049999999998
H      45.315799999999996     49.603250000000003     44.709650000000003
H      45.308900000000008     47.730949999999993     41.749649999999995
H      45.990800000000007     49.043949999999995     41.990649999999995
H      44.858100000000007     46.284750000000003     43.745250000000006
H      46.045299999999997     48.342249999999993     52.692050000000002
H      44.521900000000002     48.209850000000003     51.753049999999995
H      45.940300000000008     45.690749999999994     44.827949999999994
H      49.397599999999997     46.489850000000004     50.312350000000002
H      49.264899999999997     46.060649999999995     53.848149999999997
H      49.281400000000005     47.639849999999996     53.204550000000005
H      45.638400000000004     44.556749999999994     49.054150000000000
H      46.248900000000006     44.300349999999995     50.815549999999995
H      46.486500000000007     45.991249999999994     53.528249999999993
H      47.838300000000004     45.582049999999995     48.365649999999995
H      49.185600000000008     44.669650000000004     50.747650000000000
N      45.890000000000001     46.301149999999993     44.050850000000004
O      46.344400000000007     49.951650000000001     54.553249999999998
