22

C      46.525399999999998     49.394399999999990     49.157349999999994
C      47.979900000000001     49.900599999999990     49.427719999999994
C      46.467900000000000     47.786799999999999     48.950310000000002
C      48.953500000000005     49.825199999999995     47.994230000000002
C      47.412300000000002     47.765499999999996     47.815449999999998
C      48.720299999999995     48.235599999999998     47.550069999999991
C      47.023600000000002     46.609099999999998     47.049880000000002
C      49.819000000000003     47.694699999999997     46.855099999999993
C      48.201300000000003     45.819699999999997     46.448758999999995
C      49.588300000000004     46.312899999999999     46.434409000000002
H      46.024600000000000     49.799199999999992     48.204349999999991
H      45.859300000000005     49.877699999999997     49.987389999999991
H      48.036900000000003     51.076500000000003     49.685490000000001
H      48.490000000000009     49.294999999999995     50.077079999999995
H      45.332400000000000     47.902000000000001     48.436129999999991
H      46.312899999999999     47.721499999999999     50.046440000000004
H      49.811600000000013     50.364199999999990     48.064350000000005
H      48.325800000000001     50.271300000000004     46.920279999999991
H      46.153700000000001     45.951400000000000     47.178389999999993
H      50.667600000000000     48.216499999999996     46.713049999999996
H      47.815300000000001     44.923499999999997     45.922920000000005
H      50.524200000000008     45.856400000000001     46.142595999999998
