23

C      49.852699999999984     49.665749999999989     47.563249999999989
C      48.067599999999999     47.453749999999992     46.199649999999998
C      46.211500000000001     46.121649999999995     48.012650000000008
C      49.366200000000006     46.854250000000000     47.332650000000001
C      48.686300000000003     49.088549999999998     48.091749999999998
C      48.187600000000003     47.696349999999995     47.595150000000004
C      47.592299999999994     46.870849999999997     49.944949999999999
C      47.174300000000002     47.248849999999997     48.574449999999999
C      47.624399999999994     49.532849999999996     49.066850000000002
C      46.752699999999990     48.425849999999997     49.520649999999989
H      46.899699999999996     46.209150000000001     50.629550000000002
H      50.380300000000005     49.220549999999996     46.669750000000001
H      50.035300000000007     50.708649999999999     47.494650000000000
H      47.323700000000002     46.608950000000000     46.120049999999999
H      48.468500000000006     47.958250000000000     45.370449999999998
H      45.619900000000001     45.647249999999993     48.657550000000001
H      46.920499999999990     45.291350000000001     47.594050000000010
H      50.092500000000001     47.241149999999998     46.801650000000002
H      49.783500000000004     45.852649999999997     47.280949999999997
H      48.672799999999995     46.903249999999993     50.056049999999999
H      45.619699999999995     46.343550000000000     47.105150000000002
H      47.109699999999989     50.410149999999994     48.882549999999995
H      45.978099999999998     48.764849999999996     50.075850000000003
