145

C      47.817049999999995     45.899799999999999     56.216050000000003
C      46.354649999999999     45.611800000000002     56.056250000000006
C      48.752249999999989     45.918800000000005     51.326750000000004
C      47.710649999999994     44.756699999999995     51.244650000000007
C      48.682749999999992     45.974499999999992     54.974350000000001
C      46.032149999999994     45.008200000000002     54.705250000000007
C      49.125050000000002     46.506900000000002     52.573250000000009
C      46.692050000000002     44.864899999999992     52.191350000000000
C      48.350349999999992     45.842199999999991     53.630850000000009
C      46.853050000000003     45.209199999999996     53.524050000000010
C      47.772750000000002     46.603300000000004     57.490150000000000
C      46.486049999999999     46.775000000000006     58.057749999999999
C      45.582450000000001     46.210200000000000     57.202750000000002
C      49.067850000000000     46.214600000000004     49.930350000000004
C      48.307150000000000     45.421800000000005     48.905250000000009
C      47.623449999999998     45.896500000000003     47.717650000000006
C      47.335649999999994     44.530699999999996     49.670750000000005
C      49.765049999999995     47.141400000000004     55.457050000000010
C      50.404649999999997     46.910899999999998     57.043550000000003
C      49.103450000000002     47.393299999999996     57.882750000000001
C      45.045150000000000     43.890299999999996     54.705050000000007
C      46.098649999999999     42.715099999999993     54.510050000000007
C      45.823050000000002     41.287700000000001     54.843750000000007
C      50.195050000000002     46.701399999999992     49.275750000000009
C      43.974849999999996     43.878299999999996     55.857350000000011
C      46.057549999999999     48.000299999999996     58.822350000000007
C      44.218749999999993     43.230699999999999     53.500250000000008
C      48.671849999999999     44.416100000000000     47.878550000000004
C      52.049049999999994     48.634999999999991     48.736950000000007
C      49.402650000000001     47.150400000000005     36.007350000000002
C      50.552849999999992     48.980000000000004     44.422650000000004
C      49.671949999999995     47.928799999999995     44.784350000000011
C      48.381249999999994     43.184600000000003     38.053150000000002
C      49.087049999999998     44.647700000000000     38.125850000000007
C      50.983849999999997     49.358599999999996     43.173950000000005
C      49.207149999999999     46.870599999999996     43.793450000000007
C      49.694249999999990     43.898800000000008     37.048050000000011
C      49.318449999999991     44.973799999999997     39.590450000000004
C      50.883649999999996     47.644099999999995     37.803849999999997
C      49.311149999999998     46.348600000000005     41.363450000000007
C      50.385249999999992     48.493899999999996     42.081950000000006
C      49.665549999999996     47.266599999999997     42.394550000000010
C      50.579349999999998     46.667500000000004     36.771950000000011
C      50.547649999999990     47.497199999999992     39.408250000000010
C      50.086350000000003     45.267800000000008     37.260450000000006
C      49.895649999999996     46.298099999999991     40.054450000000010
C      48.439250000000001     44.349199999999996     40.602249999999998
C      48.403550000000003     45.153400000000005     41.798750000000005
C      47.647550000000003     44.937799999999996     43.024150000000006
C      48.404349999999994     45.649900000000002     43.966250000000009
C      50.829850000000000     49.594000000000008     45.577449999999999
C      49.995349999999995     49.667299999999997     46.745450000000005
C      48.911649999999995     48.644900000000007     47.026049999999998
C      48.732549999999996     47.604799999999997     45.970450000000000
C      48.287950000000002     46.242000000000004     46.309449999999998
C      48.100349999999999     45.235600000000005     45.362650000000009
C      47.956449999999997     49.283999999999992     47.991650000000007
C      51.933449999999993     47.244500000000002     38.821850000000005
C      51.324749999999995     48.992199999999997     37.087150000000008
C      47.820649999999993     43.430300000000003     50.793450000000007
C      49.917749999999991     52.367900000000006     53.297049999999999
C      50.919350000000001     53.436199999999999     53.155850000000001
C      49.380249999999990     52.370599999999996     48.433150000000005
C      48.899050000000003     51.870300000000000     52.307850000000009
C      51.031149999999990     53.605599999999995     51.653550000000010
C      48.793950000000002     51.598900000000000     49.562050000000006
C      50.446750000000002     53.197800000000001     49.136450000000011
C      49.320349999999998     51.857299999999995     50.868750000000006
C      50.269449999999999     53.087299999999999     50.591050000000010
C      49.328249999999990     52.334400000000002     56.240450000000010
C      50.473550000000003     53.116399999999999     55.759050000000002
C      51.431750000000001     54.308599999999998     54.112850000000009
C      49.635949999999994     52.308099999999996     54.780750000000005
C      48.453949999999999     51.457799999999992     55.530650000000009
C      47.471749999999993     50.858999999999995     54.736750000000001
C      46.768349999999998     51.116199999999992     53.445850000000007
C      47.829549999999990     50.826099999999997     52.378650000000007
C      47.142749999999999     50.517499999999998     51.131850000000000
C      47.270850000000003     51.251999999999995     49.767050000000005
C      46.462750000000000     49.916799999999995     54.635950000000008
C      46.358649999999997     52.176999999999992     49.328350000000007
C      45.678649999999998     49.987899999999996     51.298050000000011
C      48.320050000000002     49.531899999999993     51.663350000000008
H      51.355049999999999     49.427999999999997     40.557650000000010
H      50.091749999999990     47.054800000000000     52.574550000000009
H      45.767449999999990     44.284399999999991     51.695150000000005
H      46.730150000000002     45.492699999999999     47.328350000000007
H      46.216949999999990     44.602899999999991     49.348250000000007
H      49.289450000000002     48.143900000000002     55.375050000000002
H      50.717849999999991     47.214799999999997     54.725850000000008
H      50.523149999999994     45.736800000000002     57.424450000000007
H      51.350050000000003     47.262299999999996     57.282350000000001
H      49.101250000000000     47.317399999999992     59.014150000000001
H      48.629849999999998     48.332300000000004     57.471350000000008
H      47.127150000000000     43.010700000000000     54.076050000000009
H      45.079450000000001     41.507599999999996     55.623150000000010
H      44.476949999999995     46.251499999999993     57.426250000000003
H      46.659849999999999     40.728600000000000     54.836050000000007
H      44.452350000000003     43.357399999999998     56.810850000000002
H      43.649149999999999     44.943100000000001     56.051450000000010
H      42.988849999999999     43.418099999999995     55.295450000000002
H      46.721950000000000     48.783000000000001     59.238950000000003
H      45.218950000000000     48.172200000000004     58.279550000000000
H      45.792149999999999     47.905799999999999     59.992649999999998
H      43.274450000000002     43.617800000000003     53.215250000000005
H      45.015650000000001     43.050500000000000     52.495050000000006
H      44.090449999999997     42.211699999999993     54.166950000000007
H      49.826349999999998     44.593500000000006     47.757650000000005
H      48.000849999999993     43.433499999999995     47.966450000000009
H      51.681549999999994     49.208100000000002     49.639450000000011
H      53.011150000000001     48.724999999999994     49.224750000000000
H      51.832349999999998     49.492500000000007     47.924150000000004
H      51.632849999999991     46.710399999999993     36.179650000000009
H      51.297649999999990     50.485100000000003     43.024050000000010
H      49.783449999999995     43.537900000000008     36.010750000000009
H      48.166849999999997     43.243099999999998     40.637050000000002
H      47.336350000000003     43.799700000000001     43.472850000000008
H      51.773449999999990     49.941599999999994     45.503150000000005
H      50.378349999999998     50.308799999999991     47.553950000000000
H      47.868149999999993     44.268200000000007     45.845050000000008
H      52.069649999999996     46.114300000000000     39.314550000000004
H      52.665849999999999     47.978400000000008     39.062449999999998
H      51.635449999999992     48.938000000000002     36.018950000000004
H      51.959649999999989     49.539500000000004     37.766649999999998
H      50.370049999999999     49.626599999999996     37.090750000000007
H      49.086049999999993     52.229299999999995     47.359050000000011
H      51.807850000000002     54.080399999999997     50.987550000000006
H      51.090649999999989     53.816900000000004     48.515550000000005
H      51.807549999999992     55.271400000000000     53.799350000000004
H      46.566949999999999     52.266899999999993     53.365850000000009
H      46.192749999999997     53.127600000000001     48.666850000000011
H      45.277250000000002     52.282200000000003     49.827350000000010
H      45.211549999999995     49.978799999999993     50.172950000000007
H      45.857849999999999     49.078000000000003     51.927750000000010
H      44.846249999999998     50.598100000000002     51.786950000000004
H      47.967149999999997     48.719200000000001     52.298650000000009
H      49.437449999999991     49.457599999999999     51.452350000000010
N      50.644749999999995     48.672499999999999     40.667250000000010
N      51.253749999999989     54.218500000000006     55.435250000000011
O      51.087249999999997     47.173900000000003     48.712550000000007
O      48.369049999999994     46.869000000000000     36.407350000000001
O      47.224049999999998     49.840599999999995     48.741650000000007
O      48.165249999999993     42.267099999999999     38.663350000000008
O      47.506050000000002     42.322699999999998     51.109250000000010
O      46.484549999999999     48.618799999999993     54.632850000000005
