22

C      46.166999999999994     49.439499999999995     48.381749999999997
C      45.563099999999999     48.237900000000003     47.723749999999995
C      47.445099999999996     49.999000000000002     47.530749999999998
C      46.107500000000002     46.931199999999997     48.183250000000001
C      48.117600000000010     48.565099999999994     47.977450000000005
C      47.581400000000002     47.283800000000006     48.021950000000004
C      49.496099999999998     48.919800000000002     48.374250000000004
C      48.527599999999993     46.204000000000001     47.899050000000003
C      50.342700000000001     47.748299999999993     48.530649999999994
C      49.962400000000002     46.357499999999995     48.236549999999994
H      45.474200000000003     50.208700000000000     48.430049999999994
H      46.412700000000001     48.969900000000003     49.493049999999997
H      45.746000000000002     48.176300000000005     46.627650000000003
H      44.461599999999997     48.318499999999993     47.562349999999995
H      47.258499999999998     50.252199999999995     46.506950000000003
H      47.981799999999993     50.854199999999999     47.846850000000003
H      45.566699999999997     46.549100000000003     49.139949999999999
H      45.528100000000002     45.994300000000003     47.727850000000004
H      49.842799999999997     49.820199999999993     48.250950000000003
H      47.867200000000011     45.145800000000001     47.874849999999995
H      51.538400000000003     47.930799999999998     48.808349999999990
H      50.547100000000000     45.558699999999995     48.241150000000005
