22

C      46.300849999999997     48.787894999999992     46.404800000000002
C      47.561650000000007     49.910494999999997     45.885000000000005
C      46.896050000000002     47.491794999999996     46.752099999999999
C      48.322650000000003     50.091295000000002     47.278800000000004
C      48.083050000000007     47.467694999999992     47.757199999999997
C      48.559150000000010     48.722394999999992     48.120699999999999
C      48.786949999999997     46.250095000000002     48.199799999999996
C      49.664549999999998     48.756694999999993     49.052800000000005
C      49.731450000000002     46.285894999999996     49.325699999999998
C      50.036250000000003     47.552795000000003     49.780299999999997
H      45.867250000000006     49.247894999999986     47.365800000000007
H      45.427050000000001     48.552695000000000     45.680599999999998
H      46.998750000000001     50.768095000000002     45.322400000000002
H      48.328350000000007     49.277694999999994     45.308800000000005
H      46.328350000000000     46.511994999999999     47.314099999999996
H      47.380350000000000     47.122294999999994     45.888400000000004
H      47.879449999999999     50.773894999999996     47.805700000000002
H      49.241450000000007     50.529594999999986     47.087199999999996
H      48.170450000000010     45.226105000000004     48.143600000000006
H      50.051050000000011     49.857495000000000     49.427500000000009
H      50.011749999999999     45.545005000000003     49.950199999999995
H      50.572949999999999     47.858694999999997     50.691199999999995
