22

C      48.687449999999984     46.198949999999989     49.611589999999985
C      47.224150000000002     46.280850000000001     49.345749999999995
C      49.519449999999999     47.139849999999996     48.616949999999996
C      46.426349999999992     47.599549999999994     49.207939999999994
C      48.846449999999997     47.984949999999998     47.638989999999993
C      47.414049999999996     48.339550000000003     48.082909999999998
C      49.545349999999992     48.760350000000003     46.625359999999993
C      46.887650000000001     49.498949999999994     47.573029999999996
C      48.816649999999989     49.848950000000002     46.013089999999998
C      47.401750000000000     50.065150000000003     46.293759999999992
H      49.166849999999990     45.231049999999996     49.856279999999998
H      48.796849999999999     46.787750000000003     50.540210000000002
H      46.912549999999989     45.375450000000001     49.929249999999996
H      47.255649999999996     45.772849999999991     48.396019999999993
H      50.077849999999991     46.167349999999999     48.611469999999997
H      50.392449999999990     47.825749999999999     49.088809999999995
H      46.120449999999998     48.212949999999992     49.914619999999985
H      45.535350000000001     47.516649999999998     48.639739999999996
H      50.464649999999999     48.680449999999993     46.517929999999993
H      45.912649999999992     50.038849999999996     47.587189999999993
H      49.277549999999998     50.768950000000004     45.459789999999998
H      46.728649999999995     50.533249999999995     45.565789999999993
