21

C      46.276949999999992     47.141999999999996     48.289599999999993
C      46.086150000000004     47.822799999999994     49.870100000000001
C      47.211250000000000     47.844699999999996     46.087299999999999
C      46.962450000000004     49.123500000000000     49.454000000000001
C      47.518850000000000     47.661800000000007     47.580900000000000
C      47.995050000000006     48.611399999999996     48.528399999999998
C      48.381749999999997     47.045200000000001     46.719999999999999
C      49.313350000000000     49.136200000000009     48.245500000000000
C      49.839150000000004     47.431300000000000     46.574700000000000
C      50.152349999999998     48.618899999999989     47.152200000000001
H      45.732149999999997     47.794800000000002     47.522500000000001
H      46.227750000000000     46.027000000000001     48.143300000000004
H      46.592849999999999     47.110900000000001     50.449100000000001
H      45.029049999999998     47.928600000000003     50.351900000000008
H      46.304549999999999     47.373199999999990     45.640099999999997
H      47.463250000000002     48.753200000000000     45.550899999999999
H      47.181150000000002     49.957799999999999     50.159500000000001
H      48.262150000000005     46.135800000000003     46.279200000000003
H      49.635050000000007     49.972999999999999     48.762200000000000
H      50.482849999999999     47.107799999999997     45.798700000000004
H      50.970950000000002     49.142200000000003     47.007300000000001
