22

C      48.446249999999992     45.511399999999988     48.488450000000000
C      46.835249999999995     45.721999999999994     48.674350000000004
C      49.109150000000007     46.360399999999998     47.231350000000006
C      46.282950000000007     46.860099999999989     47.801850000000002
C      48.856749999999998     47.721599999999995     47.464550000000003
C      47.362950000000005     48.008299999999991     47.746750000000006
C      49.509250000000002     48.910600000000002     47.337649999999996
C      46.642050000000005     49.230699999999999     47.442750000000004
C      48.797549999999994     50.206400000000002     47.562250000000006
C      47.396549999999998     50.402499999999996     47.130350000000007
H      48.784450000000000     44.475999999999999     48.276750000000007
H      48.949350000000003     45.923699999999997     49.333550000000002
H      46.670150000000000     46.268599999999992     49.622749999999996
H      46.160350000000001     44.768799999999999     48.712850000000003
H      50.199450000000006     46.054199999999994     47.218050000000005
H      48.546150000000004     46.112600000000000     46.377250000000004
H      45.399250000000002     47.286100000000005     48.255549999999999
H      46.075949999999999     46.264099999999999     46.909050000000008
H      50.600749999999998     48.843800000000002     47.061050000000009
H      45.552849999999999     49.651100000000000     47.599150000000009
H      49.298250000000003     51.108499999999992     47.686850000000007
H      46.961549999999995     51.524000000000001     46.805149999999998
