22

C      48.479049999999994     49.160249999999991     49.820049999999995
C      48.035049999999998     50.481250000000003     48.993049999999997
C      49.029449999999997     49.023049999999998     47.212550000000007
C      47.282449999999997     50.432550000000006     47.489750000000001
C      48.013649999999998     48.141950000000008     48.675749999999994
C      47.604149999999997     48.890749999999997     47.316450000000003
C      47.141449999999999     48.108150000000009     46.230549999999994
C      47.405149999999999     46.795550000000006     48.977649999999997
C      46.776449999999997     46.765150000000006     46.366849999999999
C      46.842749999999995     46.134450000000001     47.782950000000000
H      47.964149999999997     48.818250000000006     50.617649999999998
H      49.457350000000005     49.032449999999997     49.890749999999997
H      47.349049999999998     51.054850000000002     49.742649999999998
H      49.100250000000003     50.736550000000008     49.009150000000005
H      49.839449999999999     49.363349999999997     47.921949999999995
H      49.427250000000001     48.775550000000010     46.167749999999998
H      46.160550000000001     50.735250000000008     47.164850000000001
H      47.697949999999999     51.017850000000010     46.642449999999997
H      47.271949999999997     48.873450000000005     45.382350000000002
H      47.436949999999996     46.296149999999997     49.931650000000005
H      46.193849999999998     46.317950000000010     45.642949999999999
H      47.007849999999998     44.945149999999998     48.176550000000006
