22

C      49.965399999999988     47.028399999999998     47.089549999999996
C      49.793199999999999     48.408300000000011     46.296950000000002
C      48.397999999999996     46.558100000000010     47.028350000000003
C      49.388400000000004     49.448300000000003     47.511449999999996
C      47.605199999999996     47.556100000000001     47.995449999999998
C      48.156199999999998     48.889200000000002     48.326549999999997
C      46.481499999999997     47.091700000000003     48.729749999999996
C      47.564899999999994     49.607900000000001     49.544049999999999
C      45.867699999999999     47.807000000000002     49.856949999999998
C      46.293300000000002     49.043500000000009     49.957949999999997
H      50.254599999999996     45.962900000000005     46.761049999999997
H      50.383499999999998     47.165500000000009     48.215049999999998
H      49.075199999999995     48.315800000000010     45.351050000000001
H      50.929199999999994     48.637000000000008     45.873249999999999
H      48.024199999999993     45.390900000000002     46.878250000000001
H      48.114899999999992     47.004700000000007     46.184750000000001
H      48.953900000000004     50.396800000000013     47.113450000000000
H      50.224900000000005     49.587800000000001     48.047350000000009
H      45.801500000000004     46.360700000000008     48.842749999999995
H      47.578500000000005     50.609099999999998     49.962949999999999
H      45.070800000000006     47.239000000000004     50.395049999999998
H      45.704499999999996     49.576200000000014     50.648949999999999
