22

C      47.308750000000003     49.324699999999993     46.127299999999991
C      47.827150000000003     50.276699999999991     47.125499999999995
C      48.484949999999998     47.995900000000006     46.028500000000001
C      47.271050000000002     49.881799999999998     48.352300000000000
C      48.490549999999999     47.649000000000001     47.444099999999999
C      47.630750000000006     48.450599999999994     48.365199999999994
C      48.292349999999999     46.291799999999995     47.596399999999996
C      47.278150000000011     47.837000000000003     49.668199999999992
C      47.908349999999999     45.729900000000001     48.942200000000007
C      47.353949999999998     46.499200000000002     50.016299999999994
H      47.151449999999997     49.825500000000005     45.086999999999996
H      46.304950000000005     48.806799999999996     46.391199999999998
H      47.792650000000009     51.262400000000000     46.699999999999996
H      48.983249999999998     49.903300000000002     47.036999999999999
H      49.575850000000003     48.332300000000004     45.633599999999994
H      47.997550000000004     47.201499999999996     45.146200000000000
H      46.821150000000003     50.487899999999996     49.271899999999995
H      49.695049999999995     47.826499999999996     47.778500000000001
H      48.133250000000004     45.546400000000006     46.713100000000004
H      47.052650000000000     48.355000000000004     50.536700000000003
H      47.608149999999995     44.737600000000000     49.014699999999998
H      46.826850000000007     46.182599999999994     50.913000000000004
