22

C      46.329499999999989     47.677449999999993     49.810349999999993
C      47.314399999999992     48.895350000000001     50.226250000000007
C      45.889299999999992     47.556249999999999     48.437750000000001
C      48.290399999999991     49.141050000000000     49.085250000000002
C      47.296799999999990     47.360550000000003     47.698050000000002
C      48.447599999999994     48.038450000000005     48.111350000000002
C      47.220099999999995     46.537950000000002     46.458849999999998
C      49.789599999999993     48.007950000000001     47.582349999999998
C      48.470399999999984     46.435150000000000     45.844250000000002
C      49.725599999999993     47.103250000000003     46.409350000000003
H      45.333099999999995     47.679750000000006     50.079349999999998
H      46.452199999999991     46.574449999999999     50.436049999999994
H      47.990299999999991     48.909849999999999     50.986649999999997
H      46.744599999999991     49.976950000000002     50.141550000000009
H      45.372499999999995     48.494050000000009     47.886650000000003
H      45.219499999999996     46.735849999999999     48.247750000000003
H      49.403499999999994     49.354649999999999     49.224249999999998
H      47.977599999999995     50.066549999999999     48.553449999999998
H      46.210199999999993     46.067750000000004     46.239049999999999
H      50.645899999999983     48.669750000000001     47.723350000000003
H      48.574899999999992     45.933450000000001     45.013350000000003
H      50.780500000000004     47.125650000000000     46.033349999999999
