41

C      48.297149999999988     47.881999999999991     48.639799999999994
C      48.335650000000001     46.629999999999995     49.275500000000001
C      49.527550000000005     51.160699999999991     52.156500000000001
C      48.580150000000003     49.120199999999997     49.316799999999994
C      48.856650000000002     45.920900000000003     50.907500000000006
C      48.873249999999999     49.983499999999992     51.551200000000001
C      50.560850000000002     48.252899999999997     51.092300000000002
C      49.306849999999997     48.862600000000000     50.644500000000001
C      49.438650000000010     47.457200000000000     51.142699999999998
C      47.110950000000003     47.819299999999998     47.534900000000000
C      46.244450000000001     46.850499999999997     46.925000000000004
C      46.526550000000000     45.481899999999996     47.517699999999998
C      47.962649999999996     45.369900000000001     49.741899999999994
C      46.738249999999994     49.139299999999992     47.051700000000004
C      45.647149999999996     48.886200000000002     45.939799999999998
C      45.503850000000000     49.404600000000002     44.609000000000002
C      45.352850000000004     47.439099999999996     45.827999999999996
C      46.957449999999994     50.290299999999988     47.930900000000001
C      47.889250000000004     50.323699999999988     49.101400000000005
C      46.827150000000003     44.942099999999996     48.830900000000007
C      44.894049999999993     48.831599999999995     43.368200000000002
C      50.374250000000004     51.971699999999998     52.858799999999995
C      48.107150000000004     45.243200000000002     52.088000000000001
C      46.350149999999999     51.757099999999994     47.915600000000005
C      46.589749999999995     44.017399999999995     47.609100000000005
H      49.817049999999995     45.268299999999996     50.588799999999999
H      47.804349999999999     50.033499999999989     51.501899999999999
H      51.678150000000002     47.931099999999986     51.097999999999992
H      45.814849999999993     50.330399999999997     44.581200000000003
H      44.661850000000001     46.966999999999999     45.162300000000002
H      48.159649999999999     51.131299999999996     49.787100000000002
H      51.297049999999999     51.934399999999997     53.440599999999996
H      50.521649999999994     53.052300000000002     52.665900000000001
H      47.322850000000003     45.902699999999996     52.497400000000006
H      47.184150000000002     44.440899999999999     52.020000000000003
H      48.900949999999995     44.863399999999999     53.052699999999994
H      45.750150000000005     52.322400000000002     47.227200000000003
H      46.455550000000002     52.473299999999995     49.089999999999996
H      47.291150000000002     52.232699999999994     47.661400000000000
H      46.690950000000001     42.947699999999998     47.586100000000002
O      44.321849999999998     48.271999999999991     42.559400000000004
