22

C      47.856849999999994     49.224349999999987     50.108599999999996
C      47.325949999999999     50.455649999999999     49.188900000000004
C      49.105550000000001     48.524149999999999     49.548199999999994
C      46.918849999999999     49.371249999999996     47.865200000000002
C      48.617449999999998     47.596549999999993     48.505799999999994
C      47.759349999999998     48.090849999999996     47.555399999999992
C      49.316049999999997     46.366849999999999     48.247799999999998
C      47.613849999999999     47.483849999999997     46.229599999999991
C      48.890350000000005     45.683949999999996     47.048400000000001
C      48.229449999999993     46.130849999999995     45.892299999999992
H      46.988750000000003     48.768849999999993     50.359399999999994
H      48.650849999999998     49.614749999999994     50.997399999999999
H      48.369950000000003     50.995250000000006     49.661000000000001
H      46.507350000000002     51.284050000000001     49.287199999999999
H      49.860849999999999     49.133649999999996     49.182599999999994
H      49.476649999999999     48.059049999999999     50.364399999999989
H      47.116750000000003     50.283650000000002     47.136799999999994
H      45.796950000000002     48.914749999999998     47.965000000000003
H      50.203049999999998     46.129349999999995     48.755799999999994
H      46.921650000000000     48.052549999999997     45.537300000000002
H      49.191749999999999     44.715949999999999     46.695599999999999
H      47.885150000000003     45.476450000000000     45.002600000000001
