41

C      46.615749999999991     47.615199999999987     49.126099999999994
C      47.777250000000009     47.948399999999999     50.093899999999991
C      48.139949999999999     46.618599999999994     50.704300000000003
C      49.009150000000005     48.561199999999992     49.692699999999988
C      49.713549999999998     46.596399999999996     50.985799999999998
C      50.149550000000005     47.890700000000002     50.325099999999992
C      50.788449999999997     45.974200000000003     51.832299999999989
C      51.571350000000010     48.052299999999995     50.250099999999989
C      52.049750000000003     46.599600000000002     52.193299999999994
C      52.684550000000002     47.437899999999992     51.115499999999997
C      45.558850000000007     48.852100000000000     49.262399999999985
C      43.102249999999998     49.368100000000005     48.451899999999995
C      44.348550000000003     48.219100000000005     48.442700000000002
C      43.647350000000003     50.228800000000000     47.200499999999991
C      44.396850000000001     47.978599999999993     46.879899999999992
C      43.973450000000000     49.074000000000005     46.068200000000004
C      44.575150000000008     46.671100000000003     46.304900000000004
C      43.918050000000008     48.908099999999997     44.698200000000000
C      44.304050000000004     46.354800000000004     44.890100000000004
C      44.053950000000000     47.589099999999995     44.140500000000003
H      47.884150000000005     46.322200000000002     51.804400000000001
H      46.022850000000005     46.303300000000000     49.578499999999991
H      47.274350000000013     48.839899999999993     50.826099999999997
H      46.873249999999999     47.374299999999998     48.164000000000001
H      48.224950000000007     45.692299999999996     49.885199999999998
H      49.294450000000012     49.543500000000002     49.107900000000001
H      50.723349999999996     45.053599999999996     52.660899999999998
H      51.480649999999997     48.902799999999992     49.553200000000004
H      52.623050000000006     46.405799999999992     52.975099999999998
H      53.711550000000003     47.709899999999998     51.080699999999993
H      45.187650000000005     49.326100000000004     50.547299999999993
H      46.208650000000006     49.500099999999996     48.730400000000003
H      42.288449999999997     48.859000000000002     48.173199999999994
H      42.900549999999996     49.938399999999994     49.188199999999995
H      43.793149999999997     47.495600000000003     49.039000000000001
H      43.010350000000003     50.946400000000004     46.870499999999993
H      44.616050000000001     50.816700000000004     47.426299999999998
H      44.724450000000004     45.878599999999999     47.062600000000003
H      43.825950000000006     49.758099999999992     44.013800000000003
H      44.551650000000009     45.392000000000003     44.392299999999992
H      44.149249999999995     47.227100000000000     43.024900000000002
