20

C      46.886549999999993     47.605705499999985     45.550799999999995
C      47.451549999999997     46.986445500000002     46.623200000000004
C      46.986450000000005     49.214635500000000     45.926400000000008
C      48.665850000000006     45.996765499999995     46.512999999999998
C      46.838650000000001     49.091185500000009     47.531399999999998
C      47.311850000000007     47.748585500000004     47.902200000000001
C      46.684749999999994     49.883055499999998     48.759800000000006
C      47.841449999999995     47.381615499999995     49.246500000000005
C      46.885450000000006     49.282195500000000     50.090200000000003
C      47.805149999999998     48.211615499999994     50.485800000000005
H      46.455849999999998     47.485765499999999     44.649999999999999
H      48.968649999999997     44.974154499999997     46.187700000000000
H      48.139150000000001     48.994145500000002     45.674100000000003
H      46.443049999999999     49.901105500000000     45.256300000000003
H      49.556950000000001     46.668555499999997     46.104800000000004
H      49.131349999999998     46.206085500000000     47.503999999999998
H      46.845550000000003     51.025845500000003     48.560899999999997
H      48.293450000000007     46.404105500000000     49.513900000000000
H      46.611950000000007     49.860465500000004     50.942000000000000
H      48.076650000000001     47.919905499999999     51.350000000000001
