5

C      47.700149999999994     47.950599999999994     47.679949999999991
H      47.272950000000002     46.991300000000003     47.564449999999994
H      47.388649999999991     49.008699999999997     47.132649999999998
H      47.458149999999996     47.715800000000002     48.867350000000002
H      48.727049999999998     47.875200000000000     47.402649999999994
