6

C      48.338799999999999     47.681849999999990     48.297249999999984
C      47.559899999999999     48.164849999999987     47.250550000000004
H      49.514200000000002     47.824749999999995     48.309649999999991
H      48.094600000000000     47.067549999999997     49.331649999999996
H      48.071500000000000     48.932450000000003     46.668350000000004
H      46.485799999999998     47.823349999999991     47.347549999999998
