6

C      48.821849999999991     46.975599999999993     47.897199999999998
C      47.406649999999999     48.826700000000002     47.694900000000004
H      49.159649999999999     46.343000000000004     47.050600000000003
O      48.489249999999998     46.744100000000003     48.990399999999994
O      46.840350000000001     49.656999999999996     48.375500000000002
O      48.017850000000003     48.019700000000000     47.009600000000006
