22

C      49.043149999999997     48.481699999999996     50.084359999999990
C      47.531350000000003     47.860200000000006     50.327089999999998
C      49.008449999999996     49.304100000000005     48.840739999999997
C      47.058650000000000     46.715500000000006     49.209879999999998
C      48.155550000000005     48.734799999999993     47.709630000000004
C      47.143250000000009     47.698100000000004     48.017780000000002
C      48.615450000000010     49.129199999999997     46.404989999999998
C      46.686750000000004     46.859100000000005     46.874989999999997
C      47.873550000000009     48.410600000000002     45.428089999999997
C      46.888550000000009     47.303400000000003     45.527860000000004
H      49.657950000000000     47.535600000000002     50.364090000000004
H      49.257150000000010     49.183600000000006     50.952439999999996
H      46.721649999999997     48.651200000000003     50.376040000000003
H      47.401650000000004     47.629000000000005     51.334090000000003
H      49.955349999999996     49.836000000000006     48.423710000000000
H      48.363050000000001     50.190500000000000     49.133510000000001
H      47.953249999999997     46.023700000000005     49.100099999999998
H      46.257249999999999     45.809500000000000     49.344520000000003
H      49.316749999999999     49.838900000000010     46.163820000000001
H      46.044650000000004     45.978100000000005     47.045630000000003
H      48.154850000000010     49.052500000000002     44.665909999999997
H      46.558549999999997     46.764100000000006     44.772120000000001
