20

C      48.858079999999987     46.496709999999993     49.375934999999998
C      48.735289999999999     45.532010000000007     48.403485000000003
C      46.783020000000000     47.612910000000007     48.582445000000007
C      48.646960000000000     46.409609999999994     47.132146000000006
C      48.477759999999996     47.910909999999994     48.849405000000004
C      47.950289999999995     47.741610000000001     47.458627000000007
C      49.080499999999994     49.338209999999997     49.202305000000003
C      47.933149999999998     48.907710000000002     46.602265000000010
C      49.115769999999991     50.345258000000008     48.245325000000001
C      48.543990000000001     50.097695000000009     46.990909000000002
H      48.804609999999997     46.320309999999999     50.426835000000004
H      48.525289999999998     44.588109999999993     48.576795000000004
H      46.207129999999999     48.750809999999994     48.709935000000002
H      46.235039999999998     47.232710000000004     47.707420000000006
H      49.792870000000001     46.614409999999999     46.798264999999994
H      48.310929999999999     45.803410000000007     46.115665000000014
H      49.674009999999996     49.596108000000008     50.113145000000003
H      47.553899999999999     48.890809999999995     45.573164999999996
H      49.470459999999996     51.411890000000007     48.299205000000008
H      48.793740000000000     50.885899999999999     46.389065000000009
