19

C      45.549749999999989     47.870849999999990     47.430699999999987
C      46.647749999999995     47.678250000000006     46.483599999999996
C      46.045949999999998     49.114850000000004     46.444800000000001
C      49.179850000000009     46.797250000000005     46.678699999999992
C      48.016750000000009     47.392150000000001     47.272499999999994
C      50.347150000000006     46.450249999999997     47.550899999999999
C      47.968150000000001     47.646349999999998     48.755299999999991
C      50.320749999999997     46.616749999999996     48.971199999999996
C      49.255749999999999     47.272649999999999     49.497100000000003
H      46.473750000000003     49.940449999999998     47.122500000000002
H      45.505649999999996     47.259550000000004     48.363599999999991
H      44.750350000000005     47.439850000000007     47.111999999999995
H      49.212449999999997     46.234250000000003     45.702100000000002
H      46.532750000000000     47.472350000000006     45.408100000000005
H      45.840449999999997     49.652950000000004     45.525099999999995
H      51.249649999999995     46.059550000000002     47.068699999999993
H      47.208649999999999     47.959050000000005     49.334599999999995
H      51.015850000000007     46.616849999999999     50.026600000000002
H      49.331750000000007     47.429950000000005     50.591899999999995
