8

C      47.504299999999994     48.706214999999993     48.216299999999983
C      48.309200000000004     47.384255000000017     47.906700000000001
H      46.620400000000004     48.787144999999995     48.918300000000002
H      48.362399999999994     46.631955000000005     47.108899999999991
H      48.070999999999998     46.761154999999988     48.804000000000002
H      48.026499999999999     49.368044999999995     48.763899999999992
H      47.515200000000000     49.022644999999997     47.081699999999998
H      49.379599999999996     47.533880300000000     48.143299999999996
