22

C      45.830509999999990     47.962399999999988     49.886649999999996
C      47.225550000000005     47.100000000000001     49.847549999999998
C      46.450542000000006     49.289499999999997     49.190049999999999
C      48.318590000000000     47.238499999999995     48.684249999999992
C      47.509679999999996     48.673099999999998     48.408450000000002
C      47.381710000000005     48.932300000000005     47.000950000000003
C      49.022109999999991     48.640399999999993     48.688249999999996
C      48.287829999999992     49.148900000000005     46.064750000000004
C      50.060689999999987     49.090200000000003     47.765950000000004
C      49.732489999999999     49.286999999999999     46.450149999999994
H      45.604109999999984     48.422400000000003     50.771550000000005
H      44.914809999999996     47.374699999999997     49.494450000000001
H      47.269280999999999     46.830700000000000     50.877549999999999
H      46.750454999999995     46.090700000000005     49.742149999999995
H      46.949401000000002     49.909299999999995     49.847449999999995
H      45.716809999999988     49.875899999999994     48.662949999999995
H      46.506403999999996     48.868800000000000     46.419650000000004
H      49.066769999999998     46.375800000000005     48.461749999999995
H      49.540889999999997     48.750200000000000     49.774549999999991
H      48.019019999999998     49.463599999999992     45.122450000000001
H      51.085190000000004     49.038499999999992     47.940249999999992
H      50.463449999999987     49.778500000000001     45.720249999999993
