20

C      46.771999999999984     47.920249999999989     50.116099999999989
C      46.938900000000004     46.183049999999994     45.867899999999992
C      47.839699999999993     46.657849999999996     50.350199999999987
C      47.466700000000003     47.419749999999993     46.412899999999993
C      48.037499999999994     47.667849999999994     49.292999999999992
C      46.941999999999993     48.517049999999998     47.182099999999991
C      49.263099999999994     48.203749999999999     48.549199999999999
C      46.723999999999997     48.063149999999993     48.573499999999996
C      49.115499999999997     49.288249999999991     47.667599999999993
C      47.793799999999997     49.651949999999999     47.134299999999996
H      45.664299999999997     47.800049999999999     50.601099999999988
H      46.170999999999992     45.538950000000000     46.612799999999993
H      47.929000000000002     47.678349999999995     45.366399999999999
H      48.721499999999992     46.688049999999997     51.117199999999997
H      47.617499999999993     45.653050000000000     49.937499999999986
H      45.909299999999995     48.969049999999996     46.936799999999991
H      47.318399999999997     45.759449999999994     44.882800000000003
H      50.335700000000003     47.908149999999999     48.895599999999988
H      50.158199999999994     49.810849999999988     47.732799999999997
H      47.512999999999991     50.461050000000000     46.499799999999993
