6

C      48.529750000000000     48.787299999999995     47.884699999999995
C      47.142650000000003     48.071700000000007     48.205899999999993
H      47.237150000000000     46.890900000000002     48.457999999999998
H      46.427650000000000     48.633700000000005     48.730899999999998
H      46.575250000000011     48.087600000000009     47.269100000000002
O      49.572350000000000     49.109099999999998     47.676000000000002
