8

C      48.469449999999995     47.611049999999992     46.973984999999999
C      47.592050000000008     48.452149999999996     47.676742000000012
H      47.719050000000003     49.234749999999998     49.742815000000000
H      46.332249999999995     48.260650000000005     49.383865000000007
H      47.988149999999997     46.765250000000002     46.257185000000000
H      49.667750000000005     47.904449999999997     47.072685000000000
H      46.665150000000004     47.962550000000000     47.320801000000010
O      46.856950000000005     49.105749999999993     49.109614999999998
