9

C      47.396349999999991     47.914649999999995     47.271049999999995
C      48.437950000000001     47.613450000000000     48.457750000000004
C      47.645150000000001     48.743149999999986     48.634450000000001
H      46.398449999999997     47.334249999999997     47.183850000000007
H      47.970650000000006     48.373750000000001     46.454650000000001
H      48.078149999999994     46.491950000000003     48.604550000000003
H      49.601550000000003     47.771950000000004     48.102450000000005
H      48.374750000000006     49.508049999999997     48.361549999999994
H      47.034649999999999     48.969650000000001     49.545349999999999
