87

C      47.087199999999996     52.146099999999990     42.857359999999993
C      48.480799999999995     51.670999999999992     43.003489999999999
C      45.969799999999999     48.907699999999991     46.125880000000009
C      47.286899999999996     48.191099999999992     45.967980000000011
C      45.910000000000004     51.685099999999991     43.822470000000010
C      48.833199999999998     50.886600000000001     44.222880000000004
C      45.311799999999998     49.984699999999989     45.578180000000003
C      48.319099999999999     49.170500000000004     45.626880000000000
C      46.327000000000005     50.625000000000000     44.621780000000001
C      47.775900000000000     50.329099999999997     44.754779999999997
C      46.772500000000001     52.832899999999995     41.704180000000001
C      47.564699999999995     53.367300000000000     40.481040000000000
C      48.952199999999998     52.944400000000002     40.685010000000005
C      49.426799999999993     52.157199999999989     41.927160000000001
C      45.354400000000005     48.386200000000002     47.403580000000005
C      45.348000000000006     47.121499999999997     48.094380000000001
C      46.609699999999997     46.497299999999996     47.829279999999997
C      47.502100000000006     46.997900000000001     46.770080000000000
C      45.383699999999997     53.465499999999992     41.412770000000002
C      45.054300000000005     54.622999999999990     40.700110000000002
C      46.064100000000003     55.148499999999999     39.695470000000000
C      47.359400000000001     54.551499999999990     39.748100000000001
C      44.273199999999996     52.865799999999993     42.251410000000000
C      44.546100000000003     52.152400000000000     43.550299999999993
C      43.043700000000001     52.435999999999993     41.591310000000000
C      50.557399999999994     43.697999999999993     52.262379999999993
C      50.638399999999997     41.722600000000000     53.718080000000000
C      47.458700000000000     44.039599999999993     50.605879999999999
C      47.593600000000002     42.731999999999999     51.372979999999998
C      50.670200000000001     45.042999999999992     52.744780000000006
C      51.154999999999994     41.198300000000003     52.248180000000005
C      48.936699999999995     42.158000000000001     51.486980000000003
C      49.723499999999994     44.801599999999993     51.710680000000004
C      50.171900000000001     42.275099999999995     52.099879999999999
C      48.020400000000002     48.800200000000004     54.744180000000000
C      47.420999999999999     48.555499999999995     55.975380000000001
C      48.511299999999999     48.624099999999999     53.337680000000006
C      46.014299999999999     44.214200000000005     50.917380000000009
C      46.697600000000001     44.277900000000002     49.436779999999999
C      46.200600000000001     42.897899999999993     52.010980000000004
C      50.722699999999996     45.781199999999998     54.205880000000001
C      49.165900000000001     46.382099999999994     54.282780000000002
C      49.244899999999994     47.986599999999996     54.164079999999998
C      51.303999999999995     44.857699999999994     54.983580000000003
C      48.193199999999997     45.944099999999992     55.484080000000006
C      52.705899999999993     45.291799999999995     55.657280000000000
C      50.504100000000001     48.358099999999993     55.137580000000000
C      47.187599999999996     45.081699999999998     48.362680000000005
H      49.869099999999996     50.831899999999990     44.436279999999996
H      44.534500000000001     50.427199999999999     45.926580000000001
H      49.419800000000002     49.220299999999995     45.571080000000009
H      49.327499999999993     53.123999999999995     39.628010000000003
H      50.465499999999999     52.188199999999995     41.862189999999998
H      44.344900000000003     49.110500000000002     47.499079999999992
H      44.767699999999998     47.135700000000000     49.180880000000002
H      48.099600000000002     46.158400000000000     46.434980000000003
H      44.033200000000001     55.120699999999999     41.003320000000002
H      45.920700000000004     55.897300000000001     38.904920000000004
H      48.155799999999992     55.030999999999992     39.222870000000000
H      43.626899999999999     51.833799999999997     44.094180000000009
H      42.797300000000000     52.452399999999997     40.520490000000002
H      42.603699999999996     51.431799999999996     42.155860000000004
H      47.876399999999997     46.104900000000001     50.956479999999999
H      50.884399999999992     40.102699999999999     51.998280000000001
H      49.104499999999994     41.127499999999998     51.503479999999996
H      47.813799999999993     48.558899999999994     52.513680000000008
H      45.724200000000003     45.150999999999996     51.184080000000002
H      51.604199999999999     46.469200000000001     54.038380000000004
H      48.950200000000002     46.083900000000000     53.407280000000000
H      50.321499999999993     49.362399999999994     55.542079999999999
H      50.764699999999998     44.222499999999997     55.668279999999996
H      51.317299999999996     44.077500000000001     54.342879999999994
H      48.835299999999997     46.005099999999999     56.372480000000003
H      47.157400000000003     46.262699999999995     55.552280000000010
H      48.115999999999993     44.789299999999997     55.588080000000005
H      53.063200000000002     45.411999999999992     56.758579999999995
H      53.008699999999997     46.373499999999993     55.320880000000002
H      53.396300000000004     44.550399999999996     55.204980000000006
H      50.779999999999994     47.737899999999996     55.956980000000001
H      51.486600000000003     48.342100000000002     54.544280000000001
H      48.336700000000000     45.161599999999993     48.385880000000000
H      47.475400000000000     44.384799999999998     47.511180000000003
H      52.253800000000005     41.592900000000000     52.481480000000005
N      48.490199999999994     45.205900000000000     50.991680000000002
O      51.027300000000004     41.619000000000000     54.791580000000003
O      45.737599999999993     42.713600000000000     53.135779999999997
O      47.386999999999993     48.422799999999995     57.095079999999996
