22

C      45.993349999999992     47.809599999999989     48.684199999999990
C      46.555749999999996     46.588300000000004     49.635800000000003
C      47.425350000000002     48.407300000000006     48.232599999999991
C      48.038450000000005     46.224100000000007     48.963999999999999
C      48.419149999999995     47.626999999999995     46.987200000000001
C      48.607850000000006     47.549899999999994     48.657200000000003
C      49.032750000000000     48.788499999999999     46.263300000000001
C      49.884250000000002     48.107500000000002     49.067899999999995
C      49.657550000000008     49.862800000000007     47.073599999999999
C      49.833450000000006     49.534899999999993     48.498999999999995
H      45.201050000000002     48.388500000000008     49.119999999999990
H      45.686950000000003     47.534300000000002     47.623599999999996
H      45.867650000000005     46.097399999999993     50.296199999999985
H      46.996950000000005     47.098299999999995     50.605400000000003
H      47.320749999999997     49.523399999999995     48.245899999999992
H      48.236150000000002     46.812500000000000     46.346400000000003
H      48.689349999999997     45.458399999999997     49.499899999999982
H      47.892050000000005     45.356700000000004     48.128599999999992
H      49.637449999999994     48.748599999999996     45.394599999999997
H      50.798949999999998     47.778999999999996     49.690399999999997
H      50.347150000000006     50.643299999999996     46.809799999999996
H      50.734050000000003     50.318600000000004     48.677399999999992
