22

C      47.844999999999992     47.294099999999993     46.177299999999995
C      46.839299999999994     45.864900000000006     46.388399999999997
C      49.304099999999991     48.420900000000003     48.239400000000003
C      47.074799999999996     45.640200000000007     47.837500000000006
C      48.092700000000008     47.772400000000005     47.604900000000001
C      47.259000000000000     46.925200000000004     48.565800000000010
C      47.846699999999998     49.239800000000002     47.509099999999989
C      46.364500000000000     47.655000000000001     49.469700000000003
C      47.184799999999996     49.905500000000004     48.712100000000007
C      46.196299999999994     49.168599999999998     49.532600000000002
H      47.537399999999998     48.257300000000001     45.472200000000001
H      48.626099999999994     46.935699999999997     45.681300000000000
H      45.699900000000000     46.112499999999997     46.180300000000003
H      47.459499999999998     45.243200000000002     45.673699999999997
H      49.309299999999993     48.334800000000001     49.433399999999999
H      50.300100000000000     48.433499999999995     47.328600000000002
H      45.924799999999998     45.140600000000006     48.408000000000001
H      47.952799999999996     44.978300000000004     48.028700000000001
H      47.737800000000000     49.488299999999995     46.594300000000004
H      45.795800000000000     47.248599999999996     50.285600000000002
H      47.355499999999999     51.021699999999996     48.832500000000003
H      45.983300000000000     49.672300000000007     50.527799999999999
