29

C      50.581649999999996     48.533099999999990     45.650849999999998
C      50.662549999999996     49.452899999999993     46.988450000000000
C      50.796149999999997     46.839599999999997     45.896149999999992
C      49.883550000000000     48.981900000000003     48.169550000000001
C      49.918349999999990     46.579199999999993     47.171549999999996
C      49.514649999999989     47.486100000000000     48.302949999999996
C      48.517349999999993     46.913000000000004     49.302750000000003
C      48.675150000000002     46.373600000000003     47.793850000000006
C      47.127449999999996     47.763799999999996     49.687550000000002
C      46.219449999999995     46.561000000000000     50.282850000000010
C      44.822949999999992     48.400500000000001     48.931150000000002
C      45.989149999999995     47.492899999999999     48.971850000000003
H      45.439750000000004     46.972799999999999     51.096550000000001
H      49.711050000000000     48.737400000000001     45.115250000000003
H      51.409649999999999     48.734000000000002     44.991150000000005
H      50.258150000000001     50.445000000000000     46.610650000000000
H      51.687950000000001     49.655300000000004     47.226350000000011
H      50.658749999999998     46.692000000000000     44.903449999999999
H      51.856549999999999     46.383099999999992     46.055750000000003
H      50.387549999999990     49.474100000000000     49.145449999999997
H      48.835549999999998     49.360399999999991     48.071150000000003
H      49.070049999999995     46.289600000000000     49.950749999999999
H      47.707349999999991     46.591799999999999     47.397150000000011
H      47.097250000000003     48.696499999999993     50.479350000000011
H      46.458449999999999     45.555000000000000     50.336449999999999
H      44.143450000000001     48.018799999999992     48.023049999999998
H      44.615250000000003     49.006499999999996     49.896950000000004
H      46.279150000000001     46.986899999999999     47.949250000000006
H      45.279250000000005     49.362400000000001     48.691949999999991
