10

C      47.530949999999990     46.994949999999996     47.083499999999994
H      47.778250000000000     47.190350000000009     49.202200000000005
H      48.904449999999997     49.468350000000001     46.254199999999997
H      48.769350000000003     48.592150000000004     47.760800000000003
H      48.269550000000010     49.204550000000005     49.840599999999995
H      47.095550000000003     48.968650000000011     46.706099999999992
O      48.273550000000000     49.747450000000001     46.984999999999999
O      47.932350000000000     46.252549999999999     47.977999999999994
O      47.118049999999997     47.660050000000012     46.159400000000005
O      48.564250000000001     48.352050000000006     49.070899999999995
