22

C      46.367599999999996     47.250399999999999     49.636499999999991
C      47.356599999999986     47.670700000000004     50.626400000000004
C      46.141899999999993     48.395200000000003     48.657499999999999
C      48.619699999999995     47.903700000000008     49.640000000000001
C      47.230000000000004     48.565200000000011     47.551500000000004
C      48.569299999999998     48.172500000000007     48.090099999999993
C      47.314199999999985     49.225900000000003     46.250799999999998
C      49.801199999999994     48.546500000000002     47.519199999999998
C      48.476100000000002     49.675000000000004     45.728899999999996
C      49.724799999999988     49.399700000000003     46.349400000000003
H      46.607899999999987     46.238800000000005     49.216399999999993
H      45.396100000000004     47.101300000000002     50.217900000000000
H      47.329799999999992     48.567800000000013     51.361300000000000
H      47.651999999999987     46.781900000000007     51.136799999999994
H      45.347999999999999     49.177500000000002     48.799099999999996
H      45.174800000000005     47.885400000000004     48.254999999999995
H      49.413200000000003     47.262400000000007     49.990499999999997
H      49.049700000000001     48.569800000000008     50.391700000000000
H      46.648899999999998     49.046300000000002     45.331400000000002
H      50.825199999999995     48.154000000000003     48.113900000000001
H      48.495199999999997     49.761199999999995     44.638700000000000
H      50.775499999999994     49.539900000000010     45.798599999999993
