11

C      48.699349999999995     46.539549999999991     47.744199999999992
C      48.581450000000004     48.160350000000001     48.335400000000000
C      47.459150000000008     49.267249999999997     47.807700000000004
H      47.584450000000004     46.055349999999997     47.940700000000000
H      48.583250000000007     46.659649999999999     46.642100000000006
H      49.621650000000002     46.181449999999998     47.897500000000001
H      49.329050000000009     48.851050000000008     47.985999999999997
H      47.824250000000006     49.944650000000003     47.009899999999995
H      49.112049999999996     48.209150000000001     49.357899999999994
H      46.378349999999998     49.124949999999991     47.383000000000003
H      46.865449999999996     49.745049999999999     48.485400000000006
