22

C      48.083399999999997     50.077799999999996     49.426149999999993
C      49.272099999999995     49.202100000000002     48.792949999999998
C      46.752200000000002     49.343000000000004     48.606449999999995
C      48.336699999999993     48.916499999999999     46.408649999999994
C      47.238500000000002     48.492000000000004     47.403649999999999
C      48.794100000000000     48.239400000000003     47.776249999999997
C      46.640900000000002     47.258600000000001     46.906749999999995
C      49.506799999999998     47.021000000000001     47.374150000000000
C      47.436499999999995     46.134500000000003     46.809849999999997
C      48.902200000000008     45.954099999999997     46.601749999999996
H      48.077900000000000     51.041899999999998     49.111149999999995
H      47.945599999999999     50.113000000000000     50.433850000000000
H      49.815200000000004     49.797600000000003     48.199449999999999
H      49.932699999999997     48.734899999999996     49.715349999999994
H      46.308700000000002     50.166799999999995     48.016050000000000
H      45.951999999999998     48.755299999999991     49.065749999999994
H      48.622600000000006     48.036699999999996     45.566150000000000
H      48.886499999999998     49.836399999999998     46.699849999999998
H      45.538600000000002     47.073399999999992     46.791849999999997
H      50.461399999999998     46.840299999999999     47.151649999999997
H      47.139700000000005     45.039100000000005     46.732650000000000
H      49.299400000000006     44.958100000000002     46.750749999999996
