5

C      47.878900000000002     48.168199999999992     48.070249999999994
H      47.031800000000004     48.319400000000002     48.800849999999997
H      48.968199999999996     47.856799999999993     48.370849999999990
H      47.696300000000008     48.754800000000003     47.199150000000003
H      47.705200000000005     47.245199999999997     47.618850000000002
