22

C      47.195600999999989     45.310049999999990     48.883799999999994
C      47.056261999999997     45.528849999999998     47.373999999999995
C      47.072840999999997     46.709650000000003     49.443200000000004
C      48.271579999999986     46.354349999999990     46.536699999999996
C      47.603189999999998     47.870349999999995     48.643799999999999
C      48.331639999999993     47.649650000000001     47.310000000000002
C      47.168068999999996     49.232650000000000     48.763099999999994
C      49.183999999999997     48.843849999999996     47.072100000000006
C      47.731089999999995     50.573950000000004     48.276300000000006
C      49.044369999999994     50.145849999999996     47.757599999999996
H      48.154999999999987     44.916549999999994     49.330799999999996
H      46.216169999999991     45.052749999999996     49.469300000000004
H      46.825140999999995     44.535850000000003     46.828800000000001
H      46.465869999999988     46.231149999999992     46.902400000000000
H      45.891870000000011     47.059849999999997     49.320599999999999
H      47.530125999999996     46.876449999999998     50.598399999999998
H      48.526979999999995     46.430249999999994     45.401600000000002
H      49.227170000000001     45.856649999999995     46.694900000000004
H      46.960549999999998     49.093150000000001     49.844499999999996
H      50.108129999999989     48.653449999999999     46.393000000000001
H      47.754490000000004     51.464149999999997     48.894499999999994
H      49.765879999999996     50.999449999999989     47.801800000000000
