21

C      48.583054999999987     45.963364999999982     44.925914999999989
C      47.549705000000003     46.698964999999994     46.228794999999998
C      47.963684999999998     46.318864999999995     47.765025000000001
C      47.088615000000004     45.672864999999994     48.639284999999994
C      47.390735000000006     48.018431000000000     49.928364999999992
C      47.438985000000002     47.070264999999985     48.887475000000002
C      46.838445000000007     49.311955000000005     49.601395000000004
C      48.062995000000001     48.253675000000001     51.147334999999991
C      47.369155000000006     50.305115000000001     50.461215000000003
C      48.231854999999996     49.770285000000008     51.426425000000002
H      48.854405000000000     46.540764999999986     44.046514999999992
H      49.697905000000006     45.837364999999998     45.313977000000001
H      46.603364999999997     46.480764999999998     45.908224999999995
H      47.408964999999995     47.820793000000002     46.342054999999995
H      49.073805000000007     46.302964999999993     47.889824999999995
H      48.162715000000006     45.011564999999997     44.611014999999988
H      47.075474999999997     44.710564999999995     49.144604999999999
H      46.302094999999994     49.392045000000003     48.640945000000009
H      48.516334999999998     47.597394999999999     51.732824999999998
H      47.223635000000002     51.289435000000005     50.514175000000002
H      49.099305000000001     50.073704999999997     51.953485000000008
