6

C      47.365699999999990     48.577899999999993     48.324249999999992
C      48.763799999999996     48.060000000000002     47.804549999999999
H      49.626899999999999     48.775200000000005     47.221750000000007
H      48.354999999999997     47.175500000000000     47.196850000000005
H      49.402499999999996     47.833400000000005     48.609150000000007
O      46.373100000000001     48.824500000000000     48.803149999999995
