22

C      45.736614999999986     49.298399999999987     47.469999999999992
C      46.936424999999993     50.184300000000000     48.094899999999996
C      46.385794999999995     47.872700000000002     46.932400000000001
C      47.896474999999988     49.543399999999998     49.193799999999996
C      47.683805000000000     47.259300000000003     47.552800000000005
C      48.032194999999994     48.021400000000007     48.775999999999996
C      48.302415000000003     45.888500000000001     47.343800000000002
C      49.326594999999998     47.644900000000000     49.366500000000002
C      49.527835000000003     45.591299999999997     47.966300000000004
C      50.079204999999995     46.347500000000004     49.082800000000006
H      44.840994999999999     48.801399999999994     48.128500000000003
H      45.086144999999995     49.881899999999995     46.781400000000005
H      46.452895000000005     51.118800000000000     48.343900000000005
H      47.333054999999995     50.526199999999996     47.065799999999996
H      45.649014999999999     47.010500000000000     46.891800000000003
H      46.538584999999991     47.781100000000002     45.701499999999996
H      47.699384999999999     49.808799999999998     50.298500000000004
H      48.836184999999993     49.935099999999998     48.927999999999997
H      47.989115000000005     45.111799999999995     46.494199999999992
H      50.227614999999993     48.233499999999999     49.584599999999995
H      50.175684999999994     44.881200000000000     47.801400000000001
H      51.159005000000001     46.059400000000004     49.284999999999997
