8

C      48.511799999999994     47.997149999999991     48.628578000000005
C      47.396199999999993     47.950949999999992     47.471418000000000
H      46.850099999999998     47.146749999999997     47.624728000000005
H      47.969300000000004     47.681650000000005     46.521932000000007
H      49.049199999999999     48.515750000000011     49.478067999999993
H      49.233099999999993     48.182850000000002     47.746638000000004
H      48.803500000000000     46.961649999999992     48.809387999999998
H      46.766900000000007     49.038350000000008     47.423418000000012
