83

C      52.026499999999992     41.375084999999999     47.533249999999995
C      51.917000000000002     48.213364999999996     49.470350000000003
C      45.433300000000003     51.486564999999999     47.033749999999998
C      50.774400000000000     41.652884999999998     47.873350000000009
C      46.891900000000000     51.674764999999994     47.413950000000000
C      44.927300000000002     50.121665000000007     46.978850000000001
C      51.931300000000000     44.625564999999995     48.353050000000003
C      47.640100000000004     50.435964999999996     47.892450000000004
C      50.164699999999996     43.057464999999993     48.102049999999998
C      45.134100000000004     47.483964999999998     46.916649999999997
C      46.177000000000000     46.434365000000000     47.057150000000000
C      51.730899999999998     47.039065000000008     48.428350000000002
C      48.392899999999997     45.357365000000001     47.489249999999998
C      49.434300000000000     48.249364999999997     47.775149999999996
C      45.747399999999999     48.738065000000006     47.116650000000000
C      52.632000000000005     45.907565000000005     48.455549999999995
C      47.644700000000000     46.701065000000000     47.399749999999997
C      50.341700000000003     47.060865000000007     47.867950000000000
C      47.082599999999999     49.121664999999993     47.676450000000003
C      50.543900000000001     44.435364999999990     47.989049999999999
C      48.007899999999999     48.014165000000006     47.672850000000004
C      49.811700000000002     45.665565000000001     47.535249999999998
C      49.123199999999997     50.805764999999994     48.267949999999992
C      49.880600000000001     49.581164999999999     48.293150000000004
C      48.720100000000002     42.875554999999991     47.780349999999999
C      47.860199999999999     43.979264999999998     47.799249999999994
C      46.283900000000003     43.916264999999996     47.611350000000009
C      45.545400000000001     45.062565000000006     47.206150000000001
C      44.633600000000001     52.650665000000004     46.501649999999998
C      45.246600000000001     53.890264999999999     45.908949999999997
C      46.484499999999997     54.082965000000002     46.829749999999997
C      47.273200000000003     53.166264999999996     47.404649999999997
C      48.533200000000001     53.416465000000002     48.444550000000000
C      49.484400000000001     52.198565000000002     48.220750000000002
C      43.477800000000002     49.866464999999991     46.837249999999997
C      42.708900000000000     51.091764999999995     46.796149999999997
C      43.057699999999997     52.591764999999995     46.802950000000003
C      47.940100000000001     54.006365000000002     49.680850000000000
C      50.712800000000001     52.548865000000006     47.312449999999998
C      53.578000000000003     45.733064999999996     49.657249999999998
C      43.037300000000002     53.353364999999997     48.199750000000002
C      52.838600000000000     46.896765000000002     47.254350000000002
C      52.431299999999993     46.213464999999999     45.837949999999999
C      44.859499999999997     52.536865000000006     45.003850000000000
C      53.068700000000000     45.522765000000007     51.300850000000004
C      49.481700000000004     51.544764999999998     49.682049999999997
H      52.081999999999994     49.342564999999993     49.239950000000000
H      50.145299999999999     40.700734999999995     47.993950000000005
H      52.224499999999992     43.898764999999997     49.013449999999999
H      44.120100000000001     47.038865000000001     46.756850000000000
H      48.295800000000000     41.972904999999997     47.557049999999997
H      45.700299999999999     43.082065000000000     47.677549999999997
H      44.448200000000000     44.995564999999999     47.294350000000001
H      44.557000000000002     54.720964999999993     46.065149999999996
H      46.683199999999999     55.299265000000005     47.034450000000000
H      48.606000000000002     54.278064999999998     47.817749999999997
H      42.914600000000000     48.942464999999999     47.164850000000001
H      41.607199999999999     51.358764999999991     46.822150000000001
H      42.506599999999999     53.162464999999997     45.984450000000002
H      46.872399999999999     54.232864999999990     49.401949999999992
H      48.112600000000000     55.012264999999999     50.103549999999998
H      51.421599999999998     53.250865000000005     47.804749999999999
H      51.253299999999996     51.742964999999998     46.894649999999999
H      50.123999999999995     52.904065000000003     46.294049999999999
H      54.392800000000001     46.337464999999995     49.642149999999994
H      53.940799999999996     44.645764999999997     49.736350000000002
H      42.172799999999995     54.063064999999995     48.545050000000010
H      43.877400000000002     54.174265000000005     47.975850000000001
H      43.647099999999995     52.875365000000002     48.967550000000010
H      53.164599999999993     47.966565000000003     47.138050000000000
H      51.759699999999995     45.366965000000008     45.813449999999996
H      51.873500000000000     46.677864999999997     45.055349999999997
H      53.431600000000003     46.186064999999999     45.264749999999999
H      45.676800000000000     51.913764999999998     44.603450000000002
H      44.299099999999996     52.871364999999997     44.145050000000005
H      51.887799999999999     45.357765000000001     51.279350000000001
H      53.185199999999995     44.555965000000000     51.628450000000008
H      53.288700000000006     46.380065000000002     51.854949999999995
H      50.823399999999999     49.766064999999998     48.359650000000002
H      48.563900000000004     51.398364999999998     50.337750000000007
H      50.148700000000005     50.932765000000003     50.256549999999997
O      53.206699999999998     41.467244999999991     47.104250000000000
O      52.061700000000002     47.688665000000000     50.590150000000001
