22

C      49.736949999999993     48.190149999999996     45.859999999999999
C      48.595849999999999     47.125950000000003     45.711000000000006
C      50.075049999999990     48.028149999999997     47.470400000000005
C      47.334049999999991     47.408749999999998     46.372700000000002
C      48.793750000000003     48.215949999999992     48.193100000000008
C      47.442750000000004     48.150149999999996     47.737000000000002
C      48.998850000000004     48.892049999999998     49.498100000000001
C      46.297550000000001     48.780850000000001     48.465000000000011
C      47.807350000000000     49.340550000000007     50.164900000000010
C      46.555750000000003     49.333149999999989     49.788699999999999
H      49.538349999999994     49.237850000000009     45.696100000000008
H      50.616849999999985     48.023649999999996     45.300800000000002
H      48.922749999999994     46.276449999999997     46.254300000000008
H      48.563149999999993     46.777349999999998     44.758800000000001
H      50.573249999999987     47.092649999999999     47.542000000000009
H      50.752549999999999     48.831350000000000     47.763300000000008
H      46.716749999999990     46.493749999999999     46.569300000000005
H      46.617649999999998     47.978149999999999     45.693400000000004
H      49.905749999999998     49.292149999999992     50.085400000000000
H      45.247450000000001     48.685450000000003     47.953000000000010
H      47.988149999999990     49.701450000000008     51.241199999999999
H      45.824849999999998     49.723550000000003     50.569500000000012
