21

C      47.858549999999994     45.650399999999998     48.502549999999985
C      48.600149999999999     45.567800000000005     47.095650000000006
C      46.764249999999997     46.648600000000002     48.875150000000005
C      49.496350000000000     46.993200000000002     46.943550000000002
C      47.340049999999998     47.870500000000007     48.295749999999998
C      48.533149999999999     48.140600000000006     47.420649999999995
C      46.783549999999998     49.051800000000000     48.795250000000010
C      49.048949999999998     49.384200000000007     47.067449999999994
C      47.268949999999997     50.408100000000005     48.597550000000012
C      48.454050000000002     50.547100000000000     47.781449999999992
H      48.530350000000006     46.012100000000004     49.210750000000004
H      47.535750000000000     44.478999999999999     48.732849999999999
H      47.695650000000001     45.826999999999998     46.191649999999996
H      49.267450000000004     44.912499999999994     47.012749999999997
H      46.177349999999997     46.597899999999996     49.884150000000005
H      50.164949999999997     47.259500000000003     46.115849999999995
H      50.140450000000008     46.904399999999995     48.036050000000003
H      45.835050000000003     48.822299999999998     49.406149999999997
H      49.963649999999994     49.587000000000003     46.446849999999998
H      46.805950000000003     51.356700000000004     48.986450000000005
H      48.942349999999998     51.521000000000001     47.307950000000005
