21

C      48.985979999999984     45.310749999999985     48.325400000000002
C      48.045589999999990     44.934449999999991     47.048400000000008
C      49.153869999999998     46.924049999999987     48.540799999999997
C      47.284539999999993     46.168649999999992     46.862000000000002
C      48.038429999999991     48.839549999999996     47.791400000000003
C      48.184969999999993     47.323949999999996     47.512999999999998
C      47.079769999999996     49.661650000000002     47.038800000000002
C      48.166719999999998     49.690549999999995     48.988099999999996
C      47.132649999999998     51.116449999999993     47.608200000000004
C      47.813040000000001     51.034049999999993     48.904199999999996
H      48.308539999999994     44.991749999999996     49.143999999999998
H      47.538370000000000     43.984249999999996     46.957699999999996
H      48.789720000000003     44.561749999999996     46.089900000000007
H      49.744219999999999     44.680549999999997     48.844500000000004
H      49.885040000000004     47.535049999999991     49.313300000000005
H      46.114959999999996     45.856349999999999     47.473400000000005
H      46.906329999999997     46.639749999999999     45.914099999999998
H      46.769210000000001     49.499850000000002     46.093600000000002
H      48.544269999999997     49.556849999999990     50.085900000000002
H      46.494819999999990     52.015750000000004     47.168399999999998
H      47.772099999999995     51.678249999999984     49.867200000000004
