22

C      46.626349999999995     49.400149999999996     47.214449999999992
C      47.250250000000008     48.992550000000001     45.760150000000003
C      49.842950000000002     47.751250000000006     50.396050000000002
C      47.343650000000004     47.290050000000001     45.910450000000004
C      47.453450000000004     48.423350000000006     48.292749999999998
C      47.896850000000001     47.338050000000003     47.426150000000007
C      47.536950000000004     48.389450000000004     49.741849999999999
C      48.585049999999995     46.380050000000004     47.972149999999999
C      48.384650000000008     47.181450000000005     50.206950000000006
C      49.220450000000000     46.290349999999997     49.405349999999999
H      45.574050000000000     49.180749999999996     47.265550000000005
H      46.700950000000006     50.606050000000003     47.422350000000009
H      48.220450000000000     49.536250000000003     45.313949999999998
H      46.462150000000008     48.758950000000006     44.991050000000001
H      50.425950000000000     46.925050000000006     50.913449999999997
H      49.964750000000002     48.853950000000005     49.885050000000007
H      47.815650000000005     46.612649999999995     45.081550000000000
H      46.078550000000007     47.243249999999996     45.747750000000003
H      46.772550000000010     48.839649999999999     50.413350000000008
H      48.907150000000001     45.602150000000002     47.224249999999998
H      47.944750000000006     46.650950000000002     51.008949999999999
H      50.022850000000005     45.393949999999997     48.940550000000002
