22

C      48.467589999999987     45.187649999999991     48.052049999999994
C      47.848389999999995     45.979549999999996     49.393949999999997
C      48.925890000000010     46.306949999999993     47.130850000000002
C      46.752929999999992     47.111250000000005     49.143050000000002
C      48.555589999999995     47.761549999999993     47.266950000000001
C      47.863690000000005     48.098349999999996     48.475349999999999
C      49.159490000000005     48.945349999999998     46.569350000000000
C      47.726789999999994     49.397050000000000     49.063750000000006
C      49.034089999999992     50.260349999999995     46.872850000000000
C      48.297089999999997     50.334349999999993     48.162849999999999
H      47.698290000000000     44.526750000000000     47.278550000000003
H      49.093789999999998     44.682949999999998     48.662549999999996
H      48.889589999999998     46.418950000000002     49.739950000000000
H      47.658090000000001     45.309350000000002     50.287950000000002
H      50.090990000000005     46.305450000000000     47.397649999999999
H      48.824489999999997     45.963749999999997     46.025149999999996
H      45.909009999999995     46.787749999999996     48.515350000000005
H      46.397970000000001     47.461049999999993     50.110450000000007
H      50.003590000000003     49.218049999999998     45.712049999999998
H      47.177490000000006     49.596049999999998     49.825049999999997
H      49.691590000000005     50.961949999999995     46.482650000000000
H      48.071789999999993     51.473250000000000     48.390450000000001
