22

C      46.962699999999991     50.013499999999993     48.675399999999989
C      46.293399999999998     48.814999999999998     49.560899999999990
C      47.126800000000003     49.741199999999999     47.147899999999993
C      46.440700000000000     47.372900000000001     48.867599999999996
C      48.238299999999995     48.275600000000004     47.244999999999990
C      47.856799999999993     47.429099999999998     48.197000000000003
C      49.263500000000001     48.230600000000003     46.331699999999998
C      48.694599999999994     46.346800000000002     48.431299999999993
C      49.900399999999998     47.003700000000002     46.647899999999993
C      49.788799999999995     45.982199999999999     47.636699999999990
H      47.823899999999995     50.413099999999993     49.198999999999998
H      46.039000000000001     50.908099999999997     49.038399999999996
H      45.299300000000002     49.243500000000004     49.632599999999996
H      46.224299999999999     48.885100000000001     50.667400000000001
H      46.273799999999994     49.185499999999998     46.757399999999990
H      47.685900000000004     50.541699999999999     46.815899999999999
H      46.370099999999994     46.438900000000004     49.469399999999993
H      45.663100000000000     47.189799999999998     48.084199999999996
H      49.434799999999996     48.771599999999999     45.332599999999999
H      48.800799999999995     45.609800000000000     49.281399999999991
H      50.700699999999998     46.698399999999999     45.933300000000003
H      50.645399999999995     45.091900000000003     47.883499999999998
