22

C      46.416899999999998     49.064249999999987     48.853999999999999
C      47.440100000000001     50.180550000000004     48.262600000000006
C      46.203699999999998     48.375849999999993     47.527100000000004
C      48.532399999999996     49.897050000000000     47.292200000000008
C      47.416100000000000     47.627549999999992     47.219000000000008
C      48.767099999999999     48.357549999999996     47.329000000000008
C      47.609200000000001     46.269849999999998     47.492900000000006
C      50.123599999999996     47.939550000000004     47.736900000000006
C      48.918599999999998     45.825849999999996     48.153100000000009
C      50.128100000000003     46.658449999999995     48.418700000000001
H      45.779899999999998     49.549749999999996     49.488900000000001
H      47.132999999999996     48.478649999999995     49.549099999999996
H      47.825500000000005     50.837349999999994     48.996699999999990
H      46.819400000000002     50.984349999999999     47.926699999999997
H      45.185600000000008     48.028050000000000     47.467900000000000
H      45.923299999999998     49.062850000000005     46.626400000000004
H      47.766400000000004     50.236849999999997     46.450900000000004
H      49.293300000000002     50.671550000000003     47.497700000000009
H      47.011200000000002     45.380350000000000     47.567900000000009
H      50.685500000000005     48.846250000000005     47.776400000000010
H      49.133199999999988     45.015650000000001     48.768799999999999
H      50.814399999999992     46.371249999999996     49.138400000000004
