21

C      47.170049999999996     50.141799999999996     47.271799999999999
C      46.002450000000010     47.558199999999999     47.279400000000003
C      47.403150000000011     49.745300000000000     48.880200000000002
C      47.038750000000007     48.631299999999996     46.624500000000005
C      47.976750000000010     48.257100000000001     48.807000000000002
C      47.455750000000009     47.647199999999998     47.629200000000004
C      49.199150000000003     48.099600000000002     49.576300000000010
C      48.339050000000000     46.405000000000001     47.569600000000001
C      49.827350000000010     46.787800000000004     49.504700000000007
C      49.317950000000010     45.934200000000004     48.482200000000006
H      48.000050000000002     50.768100000000004     46.823500000000003
H      46.581150000000008     51.033600000000000     47.384000000000000
H      45.759950000000003     46.837800000000001     46.516500000000001
H      45.237549999999999     47.537599999999998     48.210000000000001
H      46.471150000000009     49.702700000000000     49.384999999999998
H      47.969250000000002     50.412300000000002     49.397500000000001
H      47.468550000000008     48.400599999999997     45.622700000000002
H      49.446150000000003     48.773700000000005     50.377299999999998
H      48.272250000000000     45.778100000000002     46.706900000000005
H      50.762450000000001     46.652400000000000     49.939500000000002
H      49.702950000000001     44.966400000000000     48.228500000000004
