8

C      48.286249999999995     48.271799999999999     47.561349999999990
C      47.642849999999989     47.318399999999997     48.754150000000003
H      47.817949999999989     47.896100000000004     46.524250000000002
H      49.264350000000000     48.016499999999994     47.424950000000003
H      47.277749999999990     47.868600000000001     49.475749999999998
H      48.517649999999996     49.278499999999994     48.061950000000003
H      46.735650000000000     46.721500000000006     48.474649999999990
H      48.662950000000002     46.937399999999997     48.621350000000000
