22

C      46.453949999999999     47.619099999999989     49.669199999999996
C      47.452950000000001     46.479299999999995     50.020099999999999
C      47.284949999999995     48.878299999999996     49.200299999999999
C      48.752750000000006     46.221699999999998     48.963999999999999
C      48.163849999999996     48.595700000000008     47.982399999999998
C      48.936650000000000     47.373900000000006     47.979500000000002
C      48.439850000000007     49.702299999999994     47.077900000000000
C      49.692750000000004     47.226399999999998     46.873300000000000
C      49.162949999999995     49.598600000000005     45.854599999999998
C      49.855649999999997     48.313600000000008     45.831299999999999
H      45.962550000000007     47.781800000000004     50.696799999999996
H      45.621549999999999     47.355500000000006     48.980000000000004
H      47.010649999999998     45.395099999999999     49.754199999999997
H      47.905050000000003     46.383499999999998     51.081800000000001
H      46.813450000000003     49.770399999999995     48.919600000000003
H      47.566550000000007     49.561599999999999     50.057700000000004
H      49.713049999999996     45.870800000000003     49.437600000000003
H      48.452749999999995     45.391599999999997     48.309800000000003
H      47.989149999999995     50.608400000000003     47.071400000000004
H      50.205849999999998     46.304000000000002     46.877299999999998
H      49.425250000000005     50.316000000000003     45.106300000000005
H      50.378450000000001     48.138300000000001     44.918199999999999
