35

C      46.374349999999993     48.994309999999999     47.702814999999987
C      49.771850000000008     49.500010000000003     47.971615000000000
C      48.710150000000006     48.596450000000004     48.462405000000004
C      50.956050000000012     49.794409999999999     48.789145000000005
C      51.938950000000013     50.734709999999993     48.215194999999994
C      47.581250000000004     48.104510000000005     47.792345000000012
C      48.885950000000001     48.604939999999999     46.906925000000001
C      52.536950000000012     51.591909999999999     49.020404999999997
C      52.012750000000004     50.493009999999998     46.622095000000002
C      52.685750000000006     49.298310000000001     45.679514999999995
C      45.759650000000001     49.016810000000007     49.184184999999999
C      47.182750000000006     46.652020000000007     48.035055000000000
C      45.153850000000013     47.649220000000000     49.824705000000009
C      46.224750000000007     46.719200000000001     49.358615000000000
C      46.049450000000000     45.537220000000005     50.040684999999996
C      43.825350000000007     47.523460000000000     50.331074999999998
C      44.769850000000012     45.386820000000000     50.831265000000002
C      43.680250000000008     46.242419999999996     50.983204999999998
H      46.249350000000000     46.285560000000004     47.334614999999999
H      50.757450000000013     49.689809999999994     49.930355000000006
H      48.618350000000000     49.455110000000005     46.108705000000000
H      52.359250000000010     51.503209999999996     46.125784999999993
H      50.987150000000007     50.163209999999992     46.458335000000005
H      53.157150000000009     48.876390000000001     46.493255000000005
H      52.990150000000007     49.881909999999991     44.876514999999998
H      51.833550000000010     48.843260000000001     45.197834999999998
H      45.183750000000011     50.000009999999989     49.430364999999995
H      46.617350000000009     48.774550000000005     49.815995000000001
H      47.982550000000010     45.972690000000000     48.302984999999993
H      46.923850000000009     44.902950000000004     49.803704999999994
H      42.983150000000002     48.076700000000002     49.861864999999995
H      44.915150000000004     44.245490000000004     51.096055000000007
H      42.611950000000000     46.125000000000000     51.123485000000002
O      46.223850000000006     49.978110000000001     46.934725000000000
O      53.388050000000000     51.754509999999996     49.780445000000000
