38

C      48.024199999999993     48.770514999999989     46.570999999999991
C      46.886200000000009     48.982414999999996     44.472799999999999
C      47.631500000000010     49.899915000000000     45.553199999999997
C      46.584600000000002     50.773314999999997     46.057800000000000
C      48.860000000000007     50.475014999999992     45.009899999999995
C      47.365000000000002     51.473115000000000     47.039199999999994
C      49.455599999999997     51.704815000000004     45.442999999999998
C      48.756599999999999     51.924514999999992     46.748000000000005
C      47.146500000000010     50.746414999999992     48.270799999999994
C      48.233200000000004     49.468714999999996     50.683000000000007
C      47.570100000000004     49.101214999999996     48.123199999999997
C      48.573399999999999     49.064814999999989     49.324500000000000
C      48.280900000000010     47.969414999999998     50.242699999999999
C      48.144900000000000     46.545314999999995     50.326299999999989
C      48.470500000000008     45.787714999999999     49.017200000000003
C      48.582700000000010     45.608114999999998     51.314899999999994
C      48.538400000000003     44.440114999999999     49.253500000000003
C      48.628100000000011     44.322614999999992     50.751599999999996
H      47.855400000000010     47.654114999999997     46.303300000000000
H      49.110599999999998     48.770114999999997     46.244199999999999
H      45.491599999999998     50.855314999999997     46.186799999999998
H      45.649400000000007     49.236714999999997     44.364999999999995
H      49.239800000000010     49.888014999999989     44.122199999999999
H      46.793100000000003     52.638815000000001     47.112899999999996
H      50.508400000000002     52.005814999999991     45.382999999999996
H      49.456899999999997     51.905314999999995     47.446999999999989
H      46.334499999999998     50.955714999999991     48.785199999999989
H      48.059000000000005     51.435214999999992     48.697400000000002
H      47.564799999999998     50.299114999999993     50.778099999999995
H      49.179899999999996     49.967414999999995     50.837699999999998
H      46.877000000000002     48.415315000000000     48.420599999999993
H      49.577900000000007     49.173214999999992     48.834099999999992
H      46.848300000000002     48.011314999999996     44.882500000000000
H      48.274900000000009     46.055414999999996     47.980699999999999
H      48.883400000000002     45.798614999999998     52.392200000000003
H      48.932400000000008     43.567214999999997     48.666700000000006
H      48.826000000000001     43.361184999999999     51.280499999999989
H      47.342000000000006     49.067114999999994     43.607799999999997
