22

C      48.734299999999990     48.278399999999991     46.228649999999988
C      49.973199999999999     48.974600000000002     46.819150000000008
C      47.724699999999999     49.257899999999999     49.461349999999996
C      49.906100000000002     48.379800000000010     48.335149999999999
C      47.677900000000001     48.077700000000000     47.306449999999998
C      48.331600000000002     48.307900000000011     48.572250000000011
C      46.442499999999995     47.414400000000008     47.219250000000002
C      47.598599999999998     47.468100000000000     49.817750000000004
C      45.833199999999998     46.695600000000006     48.315550000000002
C      46.542600000000000     46.504600000000003     49.478449999999995
H      48.376299999999993     48.579300000000011     45.252449999999996
H      49.099899999999998     47.358499999999999     45.910849999999996
H      50.850900000000003     48.837700000000005     46.181150000000002
H      50.052299999999995     50.072899999999997     46.772250000000000
H      47.064200000000000     49.822300000000006     49.046150000000011
H      48.389299999999999     49.606600000000007     50.388750000000002
H      49.869300000000003     48.783600000000000     49.322950000000006
H      50.355599999999995     47.463000000000001     48.427949999999996
H      45.808999999999997     47.305900000000001     46.243449999999996
H      48.044899999999998     47.074900000000007     50.747550000000004
H      45.149099999999997     45.970900000000007     47.972350000000006
H      46.373699999999999     45.927100000000003     50.502849999999995
