72

C      51.611504999999980     46.637000000000000     46.086954999999989
C      50.551334999999987     47.279999999999994     47.162255000000002
C      46.411245000000008     45.913800000000002     48.098155000000006
C      47.093144999999986     45.580199999999998     49.453645000000009
C      50.913704999999993     48.097299999999997     48.397655000000000
C      46.883344999999991     47.210400000000000     47.567054999999996
C      48.098144999999988     46.379600000000003     50.077674999999999
C      48.531244999999977     49.001899999999999     47.246054999999998
C      49.867814999999993     48.391299999999994     49.556935000000010
C      47.850145000000005     47.960900000000002     48.253654999999995
C      48.500744999999988     47.614600000000003     49.493475000000004
C      45.590145000000014     45.250599999999999     47.055154999999999
C      44.908244999999994     44.119000000000007     47.700455000000005
C      45.138145000000016     43.984800000000000     49.103200000000015
C      46.214944999999993     44.452199999999998     49.927325000000010
C      45.482444999999977     45.561699999999995     45.701155000000000
C      44.436145000000010     44.838799999999999     45.008655000000005
C      43.834945000000005     43.752199999999995     45.773054999999999
C      43.935444999999994     43.241400000000006     47.041255000000007
C      46.042145000000012     46.891200000000005     45.169854999999998
C      46.585144999999983     47.866899999999994     46.128754999999998
C      47.684044999999990     48.683900000000001     45.966054999999997
C      47.897844999999990     48.922999999999995     44.411555000000007
C      50.081594999999993     48.670499999999997     47.071655000000007
C      50.206214999999993     48.154900000000005     51.302955000000011
C      45.184045000000005     48.186699999999995     45.923254999999997
C      48.495045000000012     45.567500000000003     51.363825000000006
C      47.372745000000016     51.757600000000004     45.892155000000002
C      47.181244999999990     51.501799999999996     47.448655000000002
C      48.882044999999991     52.188499999999998     45.403755000000004
C      48.324144999999987     50.555500000000002     48.007355000000004
C      49.852434999999993     52.143700000000003     46.706755000000001
C      49.516160999999990     51.413900000000005     48.006754999999998
C      50.950624999999988     52.979400000000005     46.684354999999996
C      50.483634999999992     51.624299999999998     49.073388000000008
C      52.091964999999988     53.029500000000006     47.592255000000009
C      51.818284999999982     51.950099999999999     48.499877100000006
H      52.368344999999998     45.747999999999998     45.881555000000006
H      50.799774999999990     46.108300000000007     45.590855000000005
H      52.203184999999998     47.326299999999996     45.253055000000003
H      49.913854999999991     46.423899999999996     47.427855000000008
H      51.930044999999993     48.542200000000001     48.483245500000010
H      44.489145000000001     43.123500000000000     49.304708000000005
H      45.843844999999995     43.659399999999998     51.176685000000006
H      43.962544999999999     45.053599999999996     43.867654999999999
H      43.062745000000014     43.509999999999998     45.083855000000000
H      43.327045000000005     42.415399999999998     47.414155000000008
H      46.257745000000007     46.896200000000000     44.063455000000005
H      48.789144999999991     48.244000000000007     44.000254999999996
H      47.045344999999998     49.060099999999998     43.690854999999999
H      50.480594999999987     49.420499999999997     46.533355000000000
H      49.511086999999989     49.529599999999995     50.053375000000003
H      50.972164999999990     48.876100000000001     51.595894999999999
H      50.395834999999991     47.106500000000004     51.402115000000009
H      49.542250999999993     48.627500000000005     51.897694999999999
H      44.427944999999994     48.018099999999997     46.841655000000003
H      48.238245000000013     49.926499999999997     44.241555000000005
H      44.749345000000005     48.781500000000001     44.952255000000008
H      47.866244999999985     44.900700000000008     51.854645000000005
H      49.697855999999987     45.301800000000007     51.367975000000015
H      48.514444999999995     46.442399999999999     52.309145000000001
H      46.811244999999985     51.248300000000008     44.960054999999997
H      46.964045000000006     52.707900000000002     45.798055000000005
H      46.209644999999988     51.102600000000002     47.955354999999997
H      46.978244999999987     52.447300000000006     47.566855000000004
H      48.845845799999992     53.246599999999994     44.802355000000006
H      49.628854999999987     51.334700000000005     44.934455000000000
H      48.033544999999997     50.410599999999995     49.173880000000011
H      50.980484999999987     53.584600000000002     45.684854999999999
H      50.248794999999987     51.115800000000000     49.925695000000005
H      52.937254999999986     53.517900000000004     47.303754999999995
H      52.795124999999992     51.608899999999998     48.996065999999999
