22

C      48.784684999999982     48.864049999999992     45.714699999999993
C      50.056384999999992     48.847649999999994     46.825099999999999
C      47.255357999999987     48.795749999999991     46.305500000000002
C      49.775684999999996     47.697349999999993     47.507299999999994
C      47.307101999999986     48.085249999999995     47.594299999999997
C      48.395114999999990     47.494149999999998     48.336400000000005
C      46.039064999999994     47.954649999999994     48.288900000000005
C      48.278914999999998     47.162550000000003     49.652499999999996
C      45.762765000000002     47.270549999999993     49.510299999999994
C      46.901885499999992     46.945050000000002     50.321300000000001
H      48.893415000000005     49.816849999999995     45.080300000000001
H      48.739784999999998     48.191250000000004     44.926600000000001
H      51.139334999999988     49.051349999999992     46.416100000000007
H      49.620444999999989     49.859349999999999     47.467000000000006
H      46.534264999999976     48.279649999999997     45.626899999999999
H      46.813865000000007     49.590550000000000     46.396599999999999
H      49.666424999999990     47.098149999999997     46.616400000000006
H      50.921224999999993     47.650349999999996     47.835200000000007
H      45.438164999999998     48.256349999999991     47.602399999999996
H      49.267894999999996     46.692950000000003     50.148100000000007
H      44.860665000000012     47.040950000000002     49.856800000000000
H      46.743564999999990     46.140650000000001     51.073399999999999
