22

C      46.060449999999989     47.112649999999988     46.705849999999984
C      47.159350000000003     46.934249999999999     45.592949999999995
C      46.526450000000011     48.620749999999994     47.363349999999990
C      48.565250000000006     47.446050000000007     45.897849999999998
C      47.744950000000003     48.806950000000008     48.100249999999996
C      48.761650000000003     48.358650000000004     47.278549999999989
C      47.680950000000010     49.620550000000001     49.290450000000000
C      50.061750000000004     48.452050000000007     47.954549999999990
C      48.962650000000011     49.509850000000007     50.053849999999990
C      50.070049999999995     48.961549999999995     49.408149999999999
H      45.112750000000005     47.107949999999995     46.305149999999990
H      46.163950000000000     46.445249999999994     47.588049999999988
H      46.540550000000010     47.746950000000005     44.913249999999998
H      47.040949999999995     45.837650000000004     45.309549999999994
H      45.814949999999996     48.395550000000007     48.234049999999989
H      46.359150000000000     49.487249999999996     46.628849999999993
H      48.871250000000003     47.785550000000008     44.990649999999995
H      49.248750000000001     46.696450000000006     45.872650000000000
H      46.608149999999995     50.162349999999996     49.479749999999989
H      50.849249999999998     47.571549999999995     47.381149999999998
H      48.956850000000003     49.806649999999998     51.086750000000002
H      50.887249999999995     49.091649999999994     49.984349999999999
