22

C      47.376199999999990     49.276449999999997     46.308349999999990
C      47.756999999999998     47.909450000000007     45.616849999999992
C      46.300899999999999     49.021749999999997     47.639249999999997
C      47.630799999999994     46.660049999999998     46.614349999999995
C      47.515199999999993     48.294950000000000     48.332649999999994
C      48.170800000000000     47.127350000000007     47.899549999999998
C      47.673299999999998     48.998350000000002     49.570949999999996
C      49.289899999999989     46.827250000000006     48.827149999999996
C      48.863799999999998     48.602350000000001     50.470149999999997
C      49.775099999999995     47.514650000000003     49.971349999999994
H      48.259899999999988     49.540350000000004     46.771449999999994
H      47.033600000000000     50.282449999999997     45.863449999999993
H      47.170399999999994     47.841450000000009     44.640849999999993
H      48.791699999999992     48.022350000000003     45.148750000000000
H      45.507199999999997     48.401150000000001     47.473749999999995
H      45.572499999999998     50.223550000000003     48.079849999999993
H      46.577900000000000     46.364350000000002     46.792849999999994
H      48.041499999999999     45.717550000000003     46.295949999999998
H      47.031099999999995     49.847250000000003     49.815350000000002
H      50.057599999999994     46.173249999999996     48.387250000000002
H      49.349499999999999     49.160250000000005     51.359150000000007
H      50.492800000000003     47.144850000000005     50.740949999999998
