22

C      47.319199999999995     47.037649999999992     46.106649999999988
C      48.434400000000004     47.797250000000005     45.347750000000005
C      46.820500000000003     47.817950000000010     47.256850000000000
C      48.437900000000006     49.207650000000001     46.094750000000005
C      47.081099999999999     48.503950000000003     48.445750000000004
C      48.362800000000000     48.693750000000009     47.693250000000006
C      47.408200000000001     48.113050000000001     49.833050000000000
C      49.381700000000002     49.121250000000003     48.753350000000012
C      48.483600000000003     48.408450000000002     50.688650000000010
C      49.322200000000002     49.528350000000003     50.126350000000002
H      47.739899999999999     45.948549999999997     46.271850000000001
H      46.564399999999999     46.731750000000005     45.381550000000004
H      49.407800000000002     47.274850000000001     45.637249999999995
H      48.412800000000004     47.806449999999998     44.379750000000001
H      45.863599999999998     48.323850000000007     46.938150000000007
H      46.640400000000007     49.640349999999998     48.537750000000003
H      47.523800000000001     49.824050000000000     45.760950000000008
H      49.224100000000000     49.853650000000002     45.755650000000003
H      46.597100000000005     47.569350000000000     50.094949999999997
H      50.136400000000002     49.774349999999998     48.167249999999996
H      48.622800000000005     47.840249999999997     51.620249999999999
H      49.823100000000004     50.051450000000003     50.780249999999995
