22

C      48.753850000000000     49.054549999999999     50.476299999999995
C      47.250449999999994     49.628749999999997     50.637300000000003
C      49.144349999999996     48.875150000000005     48.916599999999995
C      46.798949999999998     49.441749999999999     48.957100000000004
C      47.776149999999994     48.513149999999996     48.199300000000001
C      48.251150000000003     48.706149999999994     46.829100000000004
C      47.452750000000002     47.129050000000007     48.343499999999999
C      48.613049999999994     47.907849999999996     45.666999999999994
C      47.535050000000005     46.230050000000006     47.276100000000007
C      48.328250000000004     46.507549999999995     46.002299999999998
H      47.318350000000002     50.826449999999994     50.394399999999997
H      49.162650000000006     48.649050000000003     51.357499999999995
H      46.714949999999995     48.966250000000002     51.319499999999998
H      45.819150000000000     49.408649999999994     48.630900000000004
H      49.248550000000002     49.925849999999997     48.476800000000004
H      50.180850000000000     48.290050000000008     48.528200000000005
H      48.669649999999997     49.884850000000000     46.974700000000006
H      47.237649999999995     50.446650000000005     49.010899999999999
H      46.700250000000004     46.961849999999998     49.125400000000006
H      49.162450000000000     48.034949999999995     44.642500000000005
H      47.121749999999999     45.173550000000006     47.263100000000001
H      48.403150000000004     45.698250000000002     45.307499999999997
