131

C      50.922149999999995     41.465199999999996     41.076699999999995
C      50.948549999999997     40.324600000000004     41.951699999999995
C      51.677350000000004     40.209300000000006     43.243800000000000
C      52.061549999999997     42.642699999999998     42.534199999999998
C      51.106450000000002     42.855600000000003     41.501999999999995
C      50.184250000000006     39.886900000000004     43.365400000000008
C      52.222849999999994     39.412500000000001     41.776000000000003
C      55.595650000000006     48.987699999999997     49.489200000000004
C      42.686149999999998     52.405000000000001     51.151100000000007
C      43.191350000000000     53.701299999999996     51.981700000000004
C      46.445950000000003     51.351000000000006     53.853100000000005
C      45.981549999999999     52.625599999999991     54.551500000000004
C      43.451450000000001     51.211699999999993     51.435800000000000
C      45.032449999999997     54.106900000000003     52.411400000000000
C      45.846550000000001     51.043300000000009     52.628199999999993
C      44.980550000000001     53.681000000000004     53.955700000000000
C      44.502850000000002     51.484099999999998     52.429099999999991
C      44.297150000000002     53.040399999999991     52.761899999999997
C      41.423349999999999     52.666400000000003     50.504700000000000
C      40.693950000000001     53.814899999999994     50.872600000000006
C      41.065650000000005     55.008600000000008     51.404000000000003
C      42.577650000000006     55.054099999999991     51.722200000000001
C      47.762349999999998     50.876599999999996     54.372299999999996
C      48.271349999999998     51.804200000000002     55.215600000000002
C      47.227050000000006     52.876099999999994     55.102300000000000
C      42.298150000000007     48.945099999999996     49.502300000000005
C      43.169750000000008     50.064399999999999     49.057800000000007
C      43.359150000000000     49.934699999999999     50.605400000000003
C      45.702050000000000     55.539000000000009     52.411900000000003
C      44.816250000000004     56.596599999999995     51.594999999999999
C      43.391450000000006     56.231400000000001     51.286799999999999
C      42.333950000000002     51.111300000000007     48.252800000000008
C      39.635450000000006     52.839800000000004     50.632599999999996
C      41.251850000000005     50.950499999999998     47.004599999999996
C      42.748350000000002     55.998500000000000     52.744199999999992
H      53.475149999999999     49.663199999999996     49.327400000000004
H      50.225949999999997     41.723000000000006     40.127200000000002
H      50.536850000000001     43.637400000000000     41.186800000000005
H      49.313550000000006     40.049200000000006     42.660699999999999
H      49.627650000000003     40.056000000000004     44.412700000000008
H      52.858150000000002     39.731200000000001     41.012200000000007
H      52.023650000000004     38.322600000000001     41.887800000000006
H      49.325749999999999     43.611499999999999     48.144999999999996
H      53.488650000000000     44.771600000000007     47.576900000000002
H      51.055350000000004     44.870300000000000     48.445000000000000
H      55.372650000000000     46.534200000000006     44.633299999999998
H      49.956649999999996     44.685199999999995     49.513399999999997
H      53.397850000000005     43.640599999999999     43.709500000000006
H      54.444850000000002     42.855199999999996     47.958099999999995
H      51.532950000000000     47.475000000000001     48.900199999999998
H      51.013050000000007     48.907200000000010     47.039800000000000
H      48.612049999999996     44.713499999999996     50.789999999999999
H      49.223450000000000     46.416700000000006     49.618900000000004
H      52.679150000000007     43.392300000000006     46.986200000000004
H      55.125050000000002     45.558100000000003     50.920299999999997
H      49.753749999999997     47.376600000000003     48.163200000000003
H      50.780050000000003     43.719700000000003     46.663900000000005
H      54.385249999999999     48.915599999999998     46.122600000000006
H      54.235249999999994     44.057899999999997     46.018000000000008
H      53.433850000000007     50.370899999999999     46.839399999999998
H      52.686750000000004     45.464199999999998     49.763300000000001
H      54.181849999999990     46.980700000000006     46.643099999999997
H      55.330049999999993     44.063300000000005     44.425400000000003
H      55.009749999999997     44.782299999999999     48.939700000000002
H      54.402550000000005     46.753200000000007     50.082500000000003
H      44.376150000000003     54.308600000000006     54.637400000000000
H      40.333350000000003     55.748999999999995     51.844200000000001
H      48.537050000000001     50.048800000000007     54.320200000000000
H      49.306650000000005     51.739800000000002     55.872799999999998
H      47.373949999999994     53.773699999999991     55.445700000000009
H      42.814750000000004     47.981199999999994     49.484700000000004
H      41.178849999999997     48.968800000000009     49.522800000000004
H      43.993949999999998     49.653200000000005     48.479299999999995
H      44.107350000000004     49.011899999999997     50.966000000000001
H      46.839650000000006     55.588900000000002     52.344499999999996
H      45.970450000000000     56.240100000000005     53.440600000000003
H      45.258550000000000     56.865800000000000     50.527500000000003
H      44.677650000000000     57.677399999999999     51.896500000000003
H      42.712050000000005     56.881500000000010     50.857100000000003
H      41.410550000000001     51.584700000000005     48.941000000000003
H      42.956249999999997     52.114100000000001     48.072199999999995
H      38.947450000000003     53.101800000000004     49.872200000000007
H      39.147850000000005     52.736499999999999     51.523200000000003
H      41.700050000000005     50.398000000000003     46.168999999999997
H      41.090650000000004     52.005900000000004     47.018900000000002
H      40.508650000000003     50.206499999999998     46.982900000000001
H      43.448950000000004     55.800100000000008     53.481200000000001
H      42.324449999999999     56.846200000000003     53.166899999999998
H      52.695750000000004     48.121299999999998     46.971100000000007
H      53.619349999999990     45.515800000000006     44.675100000000000
H      52.042150000000007     43.894400000000005     45.109699999999997
H      57.052549999999997     45.623100000000001     43.778999999999996
H      52.825450000000004     46.266300000000001     48.106800000000007
H      52.959050000000005     41.934399999999997     44.419700000000006
H      55.586650000000006     47.841299999999997     47.701800000000006
H      56.125149999999998     46.840899999999998     48.983300000000007
H      53.785849999999996     43.496500000000005     49.821100000000001
H      54.579750000000004     42.806800000000003     45.280499999999996
N      51.999250000000004     41.703899999999997     43.779500000000006
N      49.153550000000003     45.179300000000005     49.915900000000008
N      54.026250000000005     44.043699999999994     47.118299999999998
N      55.181849999999997     46.043200000000006     49.742800000000003
O      54.174750000000003     46.669299999999993     45.253200000000007
O      53.183650000000000     43.153099999999995     42.325000000000003
O      50.073050000000002     47.559199999999997     49.160500000000006
O      51.696449999999999     42.983599999999996     46.133099999999999
O      51.792649999999995     48.800800000000002     46.373399999999997
O      55.456249999999997     47.759900000000002     46.549600000000005
O      54.930850000000000     42.772699999999993     44.304200000000009
O      56.134550000000004     45.271599999999999     44.465800000000002
O      52.611649999999997     44.676600000000001     44.046299999999995
O      50.309950000000001     43.693099999999994     48.075400000000002
O      52.740350000000007     47.512400000000007     48.305300000000003
O      56.511049999999997     48.261000000000003     49.079899999999995
O      54.671750000000003     49.718800000000009     49.888800000000003
O      54.814650000000000     43.408499999999997     49.209300000000006
O      54.455250000000007     50.045099999999998     46.023600000000002
O      52.404750000000000     45.074199999999998     48.884400000000007
S      46.800150000000002     50.368299999999998     49.162000000000006
S      48.858150000000002     49.259500000000010     50.547700000000006
S      50.593350000000001     50.899900000000002     51.865000000000002
S      48.737849999999995     49.177200000000006     47.886600000000008
S      51.004849999999998     50.049100000000003     49.218599999999995
S      48.232550000000003     51.722000000000001     50.993300000000005
S      52.419750000000008     51.959800000000008     47.765599999999999
S      46.678049999999999     49.426899999999996     51.686700000000009
S      50.458250000000007     52.535199999999996     49.604800000000004
S      49.984050000000003     51.531200000000005     47.128200000000007
S      47.810649999999995     52.941400000000009     48.602699999999999
S      48.987250000000003     51.059500000000007     49.085599999999999
S      52.905850000000001     51.444499999999998     50.327700000000000
