5

C      48.238804999999999     48.165449999999993     47.633099999999992
H      48.444265000000001     47.200150000000001     47.264600000000002
H      47.207835000000003     48.385550000000002     47.504599999999996
H      48.437564999999992     48.278749999999995     48.735399999999998
H      48.792164999999997     48.799849999999999     47.275400000000005
