22

C      45.595099999999995     47.090799999999987     47.997049999999994
C      46.075500000000005     47.305500000000002     46.371450000000003
C      46.776100000000000     47.525200000000005     48.973650000000006
C      46.835200000000000     48.496199999999995     46.467849999999999
C      48.125500000000002     48.115800000000000     48.698750000000004
C      48.192499999999995     48.277399999999993     47.248750000000001
C      49.461900000000000     48.904099999999993     46.677750000000003
C      50.499499999999998     49.077700000000000     47.655450000000002
C      49.255799999999994     48.388900000000000     49.557850000000002
C      50.478300000000004     48.951799999999999     49.049050000000008
H      45.343900000000005     46.081899999999997     48.009450000000001
H      44.747699999999995     47.759499999999996     48.409750000000003
H      45.137199999999993     47.240500000000004     45.940150000000003
H      46.332499999999996     46.256499999999996     46.008050000000004
H      46.974000000000004     46.678800000000003     49.794250000000005
H      46.459100000000007     48.140700000000002     49.869749999999996
H      46.524000000000001     49.244199999999999     46.860150000000004
H      46.922399999999996     48.690599999999996     45.452150000000003
H      49.378100000000003     49.469900000000003     45.693150000000003
H      51.180899999999994     49.918100000000003     47.636750000000006
H      49.362600000000000     48.177699999999994     50.547849999999997
H      51.252300000000005     49.284299999999995     49.735050000000001
