158

C      47.363899999999987     54.428149999999995     46.243249999999989
C      50.038499999999999     58.019949999999994     44.120750000000001
C      48.416199999999989     53.720849999999999     45.729150000000004
C      47.012299999999996     53.091549999999998     45.997349999999997
C      49.287800000000004     57.203050000000005     45.052650000000000
C      49.892899999999983     53.406649999999999     48.892349999999993
C      52.696299999999994     58.496549999999999     45.281049999999993
C      52.254400000000004     55.290750000000003     46.444649999999996
C      49.783999999999992     56.200949999999999     46.016249999999999
C      49.436300000000003     54.192949999999996     47.992749999999987
C      51.314400000000006     56.195649999999993     46.224350000000001
C      48.997299999999996     54.767350000000008     46.638649999999998
C      48.412599999999998     54.373249999999999     44.280850000000001
C      48.328899999999990     56.097149999999999     44.230649999999997
C      49.012400000000000     57.618449999999989     46.538250000000005
C      46.090400000000002     54.010450000000006     46.662750000000003
C      50.744100000000003     52.280249999999995     49.187550000000002
C      49.741000000000000     54.815749999999994     49.187749999999994
C      51.832399999999993     57.719350000000006     46.244749999999996
C      51.756699999999995     59.978250000000003     45.083050000000000
C      51.204800000000006     58.664850000000001     45.395150000000001
C      49.771699999999996     56.345250000000007     49.831749999999985
C      52.003500000000003     52.985749999999996     49.958849999999998
C      49.640099999999990     49.254949999999994     45.198650000000001
C      50.506500000000003     50.365350000000007     46.108050000000006
C      51.274200000000008     51.460750000000004     45.735249999999994
C      49.271200000000007     37.589349999999996     50.482349999999997
C      48.383700000000005     37.809150000000002     51.826849999999993
C      51.505499999999998     41.025250000000000     51.736449999999991
C      52.613299999999995     39.894350000000003     51.944449999999989
C      50.776899999999998     39.352350000000001     49.039549999999991
C      48.109700000000004     36.881749999999997     50.713549999999998
C      52.409400000000005     38.756650000000008     51.093649999999997
C      53.876799999999989     40.115549999999999     52.632549999999995
C      51.367800000000003     38.988450000000000     50.177049999999994
C      50.358300000000000     38.068349999999995     49.754249999999999
C      48.629700000000000     38.313550000000006     44.407349999999994
C      50.599499999999992     39.043250000000000     46.450749999999999
C      47.843000000000004     38.125749999999996     53.115049999999997
C      51.506699999999995     42.117750000000001     52.686749999999989
C      52.764899999999997     42.363250000000008     53.337450000000004
C      53.727899999999991     41.274450000000002     53.418649999999985
C      50.076099999999997     41.027249999999995     51.494349999999997
C      50.275199999999998     40.130150000000000     47.539749999999998
C      49.524000000000001     38.844949999999997     45.459249999999997
C      48.821100000000001     37.997050000000002     43.079549999999998
C      46.829599999999999     36.088250000000002     50.713949999999997
C      45.886799999999994     37.010050000000007     51.285549999999986
C      46.311700000000002     37.683750000000003     52.909750000000003
C      49.878000000000000     38.603049999999996     44.003950000000003
C      44.278000000000006     36.889449999999997     51.163049999999998
C      48.746499999999997     44.141850000000005     46.894449999999992
C      47.405799999999999     43.712249999999997     46.358949999999993
C      48.238100000000003     49.793650000000000     45.357749999999996
C      48.941000000000003     45.374849999999995     47.693049999999999
C      46.440799999999996     44.819150000000008     46.561149999999998
C      48.227999999999994     50.109350000000006     48.906949999999995
C      46.515000000000001     48.626850000000005     47.401049999999998
C      48.787199999999984     47.756550000000004     48.148849999999996
C      45.981800000000007     47.343350000000001     46.832650000000001
C      48.137799999999999     46.500950000000003     47.603449999999995
C      46.867300000000000     46.293650000000000     46.934849999999997
C      47.785799999999995     48.941050000000004     48.083949999999987
C      47.501799999999989     49.338949999999997     46.692549999999997
C      49.923000000000002     43.362250000000003     46.259950000000003
C      51.364999999999995     41.297349999999994     45.333249999999992
C      50.241900000000001     41.707949999999997     44.452349999999996
C      47.165599999999998     42.550849999999997     45.565349999999995
C      51.286900000000003     43.922250000000005     46.457049999999995
C      50.915399999999991     42.816150000000007     45.382649999999998
C      51.382999999999996     40.320149999999998     46.516149999999996
C      51.446500000000000     45.040350000000004     47.269949999999994
C      50.362300000000005     45.523449999999997     48.250349999999997
C      50.813699999999983     46.574950000000001     49.348550000000003
C      49.849900000000005     47.824650000000005     49.113249999999994
C      51.227199999999996     41.086250000000007     43.382649999999998
C      46.482100000000003     41.040850000000006     45.083550000000002
C      45.920699999999997     40.715850000000003     43.521850000000001
C      47.797199999999989     41.518850000000000     45.147049999999993
C      44.471999999999994     42.911249999999995     46.208650000000006
C      45.090599999999995     44.306150000000002     46.376949999999994
C      50.421300000000002     49.053650000000005     49.608349999999987
C      49.514099999999985     50.175049999999999     49.535550000000001
C      43.065200000000004     42.545150000000007     45.735550000000003
C      48.892499999999984     41.361750000000001     44.211249999999993
C      42.303700000000006     42.168049999999994     46.862849999999995
C      45.389499999999998     49.315250000000006     48.190249999999992
C      49.983699999999999     51.528050000000007     50.061849999999993
H      53.300799999999995     55.516549999999995     46.580049999999986
H      51.811599999999984     54.320750000000004     46.336049999999986
H      49.339499999999987     53.764650000000003     43.990549999999999
H      47.546099999999996     53.837249999999997     43.549250000000001
H      47.162000000000006     56.292749999999998     44.227249999999998
H      47.933199999999985     56.468750000000000     43.175250000000005
H      47.953799999999987     57.316350000000000     47.222750000000005
H      49.759100000000004     58.583449999999999     46.879949999999994
H      45.104299999999995     54.464449999999992     47.085049999999995
H      51.084199999999996     51.511550000000000     48.505849999999995
H      52.748599999999996     52.392750000000007     50.581549999999993
H      50.363399999999999     57.652249999999995     43.251949999999994
H      52.159899999999993     57.892350000000000     47.350449999999995
H      52.153399999999991     60.668250000000000     45.771649999999994
H      51.430800000000005     60.032049999999998     43.976849999999999
H      53.711199999999991     58.385149999999989     45.543250000000000
H      50.831299999999999     56.790450000000000     50.111249999999998
H      49.310099999999991     56.445949999999989     50.838849999999994
H      49.214600000000004     57.037050000000001     49.055250000000001
H      52.636499999999998     53.037050000000008     48.934349999999995
H      51.594499999999996     53.775649999999999     50.459949999999992
H      49.883899999999997     48.414850000000001     45.747550000000004
H      49.964700000000008     49.375150000000005     44.157150000000001
H      51.259399999999985     50.207449999999994     47.078749999999999
H      51.330199999999991     52.010549999999995     44.681349999999995
H      52.082499999999996     51.734750000000005     46.372550000000004
H      53.181700000000006     38.000249999999994     51.124250000000004
H      54.810900000000004     39.504750000000001     52.632049999999992
H      51.209000000000003     38.201650000000001     46.631549999999990
H      50.721800000000002     42.929850000000002     52.529749999999993
H      53.011399999999995     43.285449999999997     53.769750000000002
H      54.518699999999995     41.422049999999999     53.911749999999998
H      49.112800000000007     40.472650000000002     47.125349999999997
H      48.162900000000008     38.087649999999996     42.071150000000003
H      47.236500000000007     35.331750000000000     51.291550000000001
H      46.516499999999994     35.566649999999996     49.873949999999994
H      46.060599999999994     37.689549999999997     50.441849999999988
H      45.581299999999999     38.457949999999997     52.721549999999993
H      45.843500000000006     37.110950000000003     53.596149999999994
H      43.904399999999995     36.871949999999998     50.157349999999994
H      44.048100000000005     36.001449999999998     51.879850000000005
H      43.877899999999997     37.690749999999994     51.752849999999995
H      48.192799999999991     50.845349999999996     45.014449999999997
H      47.654599999999988     49.200550000000007     44.582049999999995
H      44.958600000000004     47.342449999999999     46.434150000000002
H      52.303200000000004     40.154849999999996     46.913250000000005
H      52.550099999999986     45.312749999999994     47.499549999999985
H      50.418599999999998     46.323350000000005     50.507750000000001
H      46.016199999999998     40.405450000000002     45.898650000000004
H      45.300799999999995     42.355750000000000     46.758849999999995
H      44.430800000000005     44.978250000000003     46.712949999999992
H      51.997500000000002     46.410049999999998     49.554649999999995
H      51.404100000000000     48.865250000000003     50.321049999999985
H      47.566900000000004     50.854749999999996     48.999749999999992
H      42.602900000000005     42.962050000000005     44.916950000000000
H      48.604600000000005     40.578350000000000     43.388949999999994
H      41.189099999999996     41.930750000000003     47.042649999999995
H      45.839200000000005     41.666849999999997     42.879549999999995
H      42.610500000000002     41.904150000000001     47.771050000000002
H      45.764600000000002     49.010149999999996     49.152950000000004
H      45.445899999999995     50.537750000000003     48.413049999999998
H      44.334900000000005     48.970250000000007     47.705650000000006
H      49.259699999999995     52.103350000000006     50.565650000000005
H      50.497899999999987     51.253650000000007     50.987549999999985
H      49.429699999999997     39.225049999999996     53.791149999999988
H      49.501900000000006     59.024550000000005     43.787649999999999
N      48.358399999999989     39.036550000000005     53.928849999999997
O      49.039099999999991     40.679150000000007     51.313549999999992
O      51.407700000000006     41.017250000000004     42.325149999999994
O      45.355999999999995     39.785449999999997     43.056650000000005
