9

C      47.612049999999989     48.292749999999998     47.895649999999989
C      48.930249999999994     48.852650000000004     49.402249999999995
C      47.689949999999996     49.238750000000003     48.867049999999992
C      48.229450000000000     47.361749999999994     47.197050000000004
C      46.994149999999991     47.089949999999995     48.026749999999993
H      48.315849999999998     47.223750000000003     46.204949999999997
H      46.842149999999997     48.791350000000001     49.216349999999991
H      46.094549999999998     46.761249999999997     47.705349999999996
O      49.905450000000002     48.541450000000005     49.795050000000003
