61

C      49.625799999999998     48.981799999999993     46.728549999999984
C      50.714600000000011     47.995600000000003     47.205049999999993
C      45.964700000000008     46.036700000000003     49.100349999999999
C      47.134400000000007     45.255900000000004     49.795449999999995
C      48.192400000000006     48.750000000000000     47.069449999999996
C      50.327800000000003     46.942599999999999     48.132050000000000
C      46.497000000000007     47.033700000000003     48.057650000000002
C      48.566200000000002     45.703800000000001     49.454850000000000
C      47.905500000000011     47.611799999999995     47.870950000000001
C      48.917700000000004     46.748699999999999     48.565850000000005
C      50.423100000000012     49.841500000000003     45.766849999999998
C      51.788800000000002     49.517800000000001     45.846250000000005
C      52.844300000000011     50.145000000000003     44.864849999999997
C      51.876400000000011     48.228500000000004     46.512650000000001
C      44.377300000000005     45.409500000000001     48.668050000000001
C      43.200100000000006     44.450899999999997     48.924150000000004
C      47.067200000000007     43.782899999999998     49.575650000000003
C      46.451900000000002     44.297100000000000     50.773850000000003
C      47.556200000000011     50.134899999999995     46.359149999999993
C      48.547700000000006     51.353999999999992     45.957649999999994
C      49.573700000000009     50.752299999999998     44.952449999999992
C      51.504100000000001     46.111899999999999     48.674749999999996
C      52.627500000000005     46.101300000000002     47.535549999999994
C      53.184900000000006     47.444600000000001     46.809449999999991
C      45.382900000000006     47.182499999999997     47.154149999999994
C      44.274200000000008     46.026699999999998     47.202149999999996
C      44.429000000000009     46.473900000000000     49.519749999999995
C      51.125600000000013     44.718100000000000     48.841749999999998
C      50.964800000000004     44.422400000000003     50.750250000000001
C      50.445700000000009     51.811500000000002     44.158849999999994
C      46.147000000000006     44.326500000000003     52.256149999999998
H      49.359200000000008     44.916600000000003     49.813150000000000
H      46.510500000000008     43.253300000000003     48.870950000000001
H      45.454900000000002     47.961599999999997     46.544750000000001
H      46.988300000000002     49.909399999999998     45.642450000000004
H      49.050900000000006     51.549500000000002     46.863149999999997
H      48.131600000000006     52.413800000000002     45.887149999999998
H      49.096700000000006     50.265400000000000     44.074750000000002
H      52.130100000000006     46.521899999999995     49.625350000000005
H      52.663800000000002     45.244500000000002     46.987149999999993
H      53.736700000000006     45.725100000000005     47.878449999999994
H      53.603200000000008     47.046299999999995     45.748950000000001
H      53.701200000000007     48.331299999999999     47.199750000000002
H      46.623200000000004     50.407100000000007     46.992950000000000
H      44.747100000000010     45.061599999999999     46.644950000000001
H      43.498200000000004     46.342500000000001     46.387250000000002
H      44.182500000000005     47.401599999999995     49.109749999999998
H      44.394300000000008     46.763200000000005     50.681350000000002
H      51.946000000000005     44.013799999999996     49.039949999999997
H      50.219800000000006     44.199100000000001     48.253049999999995
H      50.451100000000004     45.193500000000000     51.422049999999992
H      50.572400000000009     43.313200000000002     50.768250000000002
H      51.837100000000014     44.524600000000000     51.243450000000003
H      51.224000000000011     52.284500000000001     44.757349999999995
H      49.848800000000004     52.774099999999997     43.803049999999992
H      50.971500000000013     51.445100000000004     43.348549999999996
H      46.438100000000006     43.225900000000003     52.513849999999998
H      45.124500000000005     44.611100000000000     52.158049999999996
H      46.979900000000008     44.960000000000001     52.651450000000004
O      53.758699999999997     50.745600000000003     44.666549999999994
O      42.241300000000003     43.903399999999998     49.317749999999997
