22

C      47.473349999999989     50.182199999999995     47.126149999999996
C      48.281350000000003     49.493900000000011     46.029740000000004
C      46.375550000000004     49.071200000000005     47.711420000000004
C      48.477949999999993     47.858300000000000     46.128970000000002
C      47.196449999999999     47.802500000000009     48.258920000000010
C      48.402550000000005     47.225300000000004     47.578099999999999
C      47.221249999999998     47.312300000000008     49.636879999999998
C      49.396150000000006     46.311199999999999     47.942870000000006
C      48.283349999999999     46.338300000000004     50.104580000000006
C      49.217349999999996     45.725600000000000     49.244330000000005
H      48.092849999999999     50.363600000000005     48.077210000000001
H      46.838849999999994     51.045400000000001     46.679400000000001
H      48.024050000000003     49.962400000000002     44.953120000000006
H      49.246250000000003     49.996900000000011     46.257790000000000
H      45.629549999999995     48.720100000000002     46.871160000000003
H      45.754649999999998     49.719500000000011     48.451640000000005
H      47.611049999999992     47.794300000000007     45.420100000000005
H      49.406449999999992     47.710999999999999     45.628390000000003
H      46.275949999999995     47.365300000000005     50.220430000000000
H      50.370450000000005     46.119100000000003     47.400430000000007
H      47.989049999999992     45.946300000000008     51.046879999999994
H      49.859650000000002     44.954599999999999     49.638210000000001
