45

C      44.764150000000001     50.861274999999992     48.337999999999994
C      48.051250000000003     48.431174999999996     46.976599999999998
C      47.948650000000008     47.035975000000008     46.372499999999995
C      51.145550000000007     47.137275000000002     47.999999999999993
C      49.416950000000007     48.977275000000006     47.252900000000004
C      47.986849999999997     44.717975000000010     46.727699999999992
C      50.768350000000005     48.545474999999996     47.500099999999996
C      50.126449999999998     46.004675000000006     47.610199999999999
C      48.684450000000005     45.944474999999997     47.020000000000003
C      49.892350000000000     46.634574999999998     48.996900000000004
C      46.930550000000004     49.357275000000001     46.681699999999999
C      45.583350000000003     48.926074999999997     46.028100000000002
C      45.667949999999998     47.646174999999999     45.286200000000001
C      46.715750000000007     46.769975000000002     45.633599999999994
C      46.986049999999999     50.760975000000002     46.906500000000001
C      45.535649999999997     51.246375000000000     46.850900000000003
C      44.642550000000007     50.086375000000004     46.160999999999994
C      43.234249999999996     50.193275000000000     46.159900000000000
C      48.297050000000006     51.286275000000003     47.446700000000000
C      49.368450000000003     50.446174999999997     47.432799999999993
C      50.843849999999996     50.959074999999999     47.678400000000003
C      51.548150000000000     49.680675000000008     47.219999999999992
C      50.625650000000000     46.275675000000007     50.414099999999998
C      53.003049999999995     49.660875000000004     47.751600000000003
H      51.065549999999995     45.211875000000006     50.115800000000000
H      44.335450000000002     51.561374999999998     48.961400000000005
H      45.369549999999997     50.366775000000004     48.991999999999997
H      44.052550000000004     49.872875000000008     48.347199999999994
H      52.233350000000009     46.984274999999997     47.780099999999997
H      50.669249999999998     45.022774999999996     47.486799999999995
H      46.846049999999998     45.676575000000000     45.207900000000002
H      45.538350000000001     52.289974999999998     46.643999999999998
H      48.365150000000007     52.317475000000002     47.666699999999999
H      50.974150000000002     51.980074999999999     47.308900000000001
H      50.833050000000007     51.640875000000008     48.628599999999999
H      50.670150000000000     47.306475000000006     50.939900000000002
H      49.981649999999995     45.708574999999996     51.292499999999997
H      53.552849999999999     48.653374999999997     47.699800000000003
H      53.876950000000001     50.633875000000003     47.028799999999997
H      53.036549999999998     49.705775000000003     48.841500000000003
H      44.964350000000003     47.208875000000006     44.707500000000003
H      52.048350000000006     49.795474999999996     46.102499999999999
H      48.779550000000008     47.245175000000003     48.981999999999992
O      42.123049999999999     50.300075000000007     45.919899999999991
O      47.581750000000007     43.682524999999998     46.397699999999993
