22

C      49.084624999999988     50.366899999999987     46.878919999999987
C      47.822845000000001     50.112499999999997     46.071019999999997
C      48.807284999999993     49.920800000000000     48.321519999999992
C      47.105114999999998     48.726199999999999     46.091619999999999
C      47.970844999999997     48.614599999999996     48.522720000000007
C      47.175645000000003     47.929299999999998     47.416419999999995
C      47.772175000000004     47.842799999999997     49.740319999999997
C      46.505264999999994     46.660299999999999     47.562119999999993
C      47.265794999999997     46.451999999999998     49.961219999999997
C      46.612565000000004     45.922100000000000     48.840419999999995
H      49.837625000000003     49.588099999999997     46.626419999999996
H      49.696764999999999     51.243600000000001     46.766619999999996
H      47.717245000000005     50.561499999999995     45.092579999999998
H      47.241524999999996     51.095099999999995     46.609919999999995
H      49.801334999999995     49.736399999999996     48.807019999999994
H      48.092465000000004     50.682600000000001     48.855220000000003
H      46.265375000000006     49.030299999999997     45.384009999999996
H      47.223695000000006     48.037499999999994     45.257859999999994
H      48.041295000000005     48.387200000000000     50.507419999999996
H      46.162374999999997     46.386099999999999     46.681619999999995
H      47.343485000000001     45.820799999999998     50.907420000000002
H      46.257954999999995     44.756399999999999     48.816419999999994
