22

C      50.039199999999994     47.763349999999988     50.420399999999987
C      48.854399999999998     48.879649999999998     50.084099999999992
C      50.493600000000001     47.155050000000003     48.901700000000005
C      47.774099999999990     46.984250000000003     46.073499999999996
C      49.051499999999990     47.235649999999993     48.230599999999995
C      48.185400000000001     48.307750000000013     48.799099999999996
C      48.845699999999994     46.649450000000002     47.034300000000002
C      46.809100000000001     48.647950000000009     48.790499999999994
C      46.432900000000004     47.499449999999996     46.667699999999996
C      45.883499999999998     47.912350000000004     47.924700000000001
H      50.953899999999990     48.331850000000003     50.921899999999994
H      49.523799999999994     47.094149999999999     51.013500000000008
H      49.191899999999990     49.877949999999998     50.045800000000000
H      47.988799999999998     48.848550000000003     50.865700000000004
H      51.296300000000002     47.758449999999996     48.376800000000003
H      50.749799999999993     46.132149999999996     48.967299999999994
H      48.298099999999991     47.761150000000001     45.476600000000005
H      47.591099999999997     46.387450000000001     44.986499999999992
H      49.795400000000001     46.122050000000002     46.815100000000001
H      46.292000000000002     49.449150000000003     49.420199999999994
H      45.537599999999998     47.311449999999994     46.249200000000002
H      44.703699999999998     48.015450000000001     48.010300000000001
