21

C      47.474949999999993     48.526599999999988     46.261899999999990
C      46.528261000000001     49.626599999999996     47.252899999999997
C      49.938850000000002     48.385800000000003     46.349499999999992
C      47.406900000000000     49.871300000000005     48.506000000000000
C      48.745590000000000     48.135999999999996     46.983600000000010
C      48.482730000000011     48.786900000000003     48.409000000000006
C      49.714220000000005     46.751300000000001     46.789800000000000
C      48.914940000000009     48.100600000000000     49.642699999999998
C      49.828630000000011     46.158699999999996     48.214299999999994
C      49.582050000000002     46.773800000000008     49.486800000000002
H      46.797993000000005     47.726900000000001     46.081499999999998
H      47.853870000000008     49.027600000000007     45.231499999999997
H      45.804540000000003     50.443600000000004     46.951200000000000
H      45.803739999999998     49.118500000000012     47.787700000000001
H      49.939620000000012     47.967399999999998     45.379199999999997
H      50.196260000000002     49.328400000000002     46.320999999999998
H      47.381129999999999     50.882000000000005     49.236499999999992
H      49.130500000000005     46.212199999999996     46.147900000000000
H      48.579880000000003     48.137299999999996     50.768500000000003
H      50.076900000000002     45.117999999999995     48.584600000000002
H      49.717000000000006     46.288200000000003     50.338900000000002
