5

C      47.748699999999999     47.985799999999998     48.161400000000000
H      47.212500000000006     48.151799999999994     47.137100000000004
H      48.787499999999994     48.121499999999997     48.392699999999991
H      47.420800000000000     46.983800000000002     48.247100000000003
H      47.369600000000005     49.016199999999998     48.862899999999996
