5

C      48.199249999999985     48.213449999999995     47.900149999999996
H      47.216949999999997     48.538150000000002     47.835449999999994
H      48.603849999999994     48.814849999999993     47.100650000000002
H      48.783050000000003     47.185150000000007     47.426949999999991
H      48.598849999999999     48.313749999999999     48.899349999999998
