5

C      47.867799999999988     47.966849999999994     47.954849999999993
H      48.708300000000001     47.673149999999993     47.271050000000002
H      47.291699999999999     47.216350000000006     48.261150000000001
H      47.416999999999994     48.783649999999994     47.421650000000000
H      48.682399999999994     48.018150000000006     48.728949999999998
