22

C      50.056699999999992     47.099349999999987     48.841144999999990
C      49.101899999999993     47.783750000000012     50.015574999999998
C      49.965700000000005     47.820650000000001     47.378704999999997
C      48.443000000000005     49.110350000000011     49.345025000000000
C      48.472500000000004     47.945049999999995     47.010134999999998
C      47.669300000000000     48.537650000000014     48.093744999999998
C      48.017000000000003     47.431550000000001     45.737344999999998
C      46.322499999999998     48.285049999999998     48.197654999999997
C      46.545099999999998     47.350950000000012     45.815775000000002
C      45.759300000000003     47.628650000000007     46.989294999999998
H      51.263100000000001     47.143349999999998     49.043014999999997
H      49.833099999999995     46.052949999999996     48.902604999999994
H      48.035400000000003     47.163150000000002     50.309134999999998
H      49.626299999999993     47.804850000000002     50.926175000000001
H      50.814500000000002     47.508449999999996     46.854104999999997
H      49.942500000000003     48.751050000000006     48.118164999999998
H      49.041900000000005     49.947050000000004     49.419635000000000
H      47.512499999999996     49.076350000000005     50.016004999999993
H      48.465600000000002     46.743650000000002     45.133674999999997
H      45.877800000000001     48.859049999999996     48.985675000000001
H      45.994100000000003     47.282650000000004     45.073824999999999
H      44.736899999999999     47.018550000000005     46.762924999999996
