22

C      48.354585000000000     47.661799999999992     45.999549999999992
C      47.470534999999998     46.382700000000000     46.598550000000003
C      46.689745000000016     49.443899999999999     46.823850000000007
C      46.414745000000011     47.074100000000001     47.592150000000004
C      48.021190000000004     48.430499999999995     47.247350000000004
C      46.914845000000000     48.558700000000002     48.060749999999999
C      47.113645000000020     48.864999999999995     49.384750000000011
C      49.291544999999999     49.219700000000003     47.667550000000006
C      48.306466000000000     49.331800000000001     49.955750000000002
C      49.472835000000003     49.539800000000000     49.058350000000004
H      47.623519000000002     47.415800000000004     44.997850000000000
H      49.523915000000002     47.430300000000003     45.870350000000002
H      48.146325000000004     45.515000000000001     47.062950000000001
H      47.235844999999998     45.640000000000001     45.724150000000002
H      47.052445000000006     50.484999999999999     46.955449999999999
H      46.139144999999999     49.033000000000001     45.934049999999999
H      45.507745000000000     47.293800000000005     47.180350000000004
H      46.388345000000001     46.243099999999998     48.435850000000002
H      46.156145000000009     48.669200000000004     50.023449999999997
H      50.046935000000005     48.950599999999994     46.911250000000010
H      48.257818999999998     49.603200000000001     51.002150000000000
H      50.492255000000000     50.045299999999997     49.526250000000005
