9

C      47.668899999999994     48.627149999999993     47.929649999999995
C      48.323299999999989     48.376750000000001     49.348659999999995
C      48.290399999999991     48.651749999999993     46.751940000000005
H      47.781099999999995     48.482950000000002     50.254120000000000
H      46.602699999999999     48.406649999999999     48.162340000000000
H      49.222799999999992     48.874549999999999     49.532209999999992
H      48.724899999999991     47.125450000000001     49.382859999999994
H      47.921199999999999     48.705649999999991     45.745880000000000
H      49.397300000000001     48.376350000000002     46.606219999999993
