22

C      49.516749999999988     49.214489999999984     47.903399999999991
C      49.874650000000003     48.441809999999990     49.242400000000004
C      47.526849999999996     49.459459999999993     46.283400000000000
C      48.519250000000000     47.903369999999995     49.807600000000008
C      48.127350000000007     48.468549999999993     47.549900000000008
C      47.552049999999994     47.532209999999992     48.600300000000004
C      47.580449999999999     48.018739999999994     46.091700000000003
C      46.451549999999997     46.550959999999989     48.820300000000003
C      46.517150000000001     46.976639999999989     46.284700000000001
C      45.991450000000000     46.432479999999998     47.449500000000000
H      50.305050000000008     48.585079999999991     47.062500000000000
H      49.271050000000002     50.295690000000008     48.032300000000006
H      50.475750000000005     48.829449999999994     49.972600000000000
H      50.681950000000001     47.500649999999993     49.191699999999997
H      46.406649999999999     49.698149999999998     46.390600000000006
H      48.136849999999995     49.837850000000003     45.504999999999995
H      48.678550000000001     47.366599999999991     50.785499999999999
H      47.989249999999998     48.549479999999988     50.569000000000003
H      48.227649999999997     47.815899999999999     45.214500000000001
H      46.168549999999996     46.209449999999990     49.794399999999996
H      46.027850000000001     46.638089999999991     45.272599999999997
H      45.318049999999999     45.704309999999992     47.174000000000007
