82

C      50.110299999999995     51.494599999999991     48.856299999999990
C      48.804200000000002     52.127899999999997     48.223900000000000
C      48.013200000000005     47.872399999999999     47.385700000000000
C      51.091699999999996     50.956400000000002     47.952500000000001
C      46.540500000000002     45.638700000000000     47.123599999999996
C      48.537200000000006     51.409700000000001     47.012499999999989
C      48.006900000000002     44.627399999999994     44.957099999999997
C      45.776900000000005     44.556199999999990     46.417599999999993
C      52.162700000000008     50.276799999999994     45.794899999999998
C      46.992500000000000     46.019399999999990     44.391300000000001
C      46.946500000000000     45.224999999999994     45.773499999999999
C      50.987200000000009     50.114099999999993     46.747799999999998
C      49.508100000000006     47.468800000000002     43.779399999999995
C      49.071500000000000     47.322800000000001     45.075899999999990
C      49.443400000000004     50.346400000000003     46.465799999999987
C      49.157700000000006     47.863799999999998     46.379300000000001
C      48.016600000000004     47.068399999999997     44.142499999999998
C      49.972600000000007     49.135099999999994     46.212199999999996
C      50.386600000000008     51.932199999999995     50.260199999999983
C      49.604100000000003     53.135499999999993     50.727399999999989
C      48.383100000000006     53.646599999999992     50.089299999999980
C      48.167900000000003     53.348199999999991     48.819299999999998
C      47.928800000000003     48.826799999999992     48.478200000000001
C      46.750700000000002     48.526799999999994     49.334399999999988
C      46.618500000000004     47.183999999999997     49.114499999999992
C      46.915600000000005     46.854599999999991     47.684199999999990
C      51.259900000000009     51.129599999999996     51.057299999999998
C      51.139900000000004     51.168099999999995     52.428399999999996
C      50.251899999999999     52.259599999999992     52.973299999999995
C      49.548900000000003     53.330199999999991     52.248999999999995
C      52.512900000000009     50.378500000000003     50.169399999999996
C      52.485599999999998     50.491500000000002     48.583500000000001
C      44.150000000000006     42.689499999999995     45.674499999999995
C      44.547400000000003     44.144399999999990     45.764799999999994
C      47.346500000000006     51.935599999999994     46.256599999999992
C      46.417999999999999     52.726699999999994     47.098799999999997
C      47.103300000000004     53.885599999999997     48.078800000000001
C      45.540000000000006     51.976699999999994     48.302499999999995
C      43.094900000000003     42.224800000000002     44.635499999999993
C      51.098599999999998     49.733400000000003     50.585299999999989
C      46.470500000000001     50.921799999999990     45.483999999999995
C      47.072800000000001     50.844700000000003     43.906599999999997
C      44.125800000000005     52.883799999999994     48.624399999999994
H      47.746600000000001     43.506299999999996     44.799899999999994
H      48.984999999999999     44.803199999999990     45.042999999999992
H      52.871900000000004     49.353399999999993     45.830500000000001
H      52.850900000000003     51.041299999999993     45.956399999999988
H      45.928600000000003     46.166399999999996     44.073099999999997
H      47.921700000000001     54.494799999999984     50.496099999999998
H      48.727400000000003     49.501099999999994     48.691599999999994
H      46.414100000000005     48.936499999999995     50.266300000000001
H      45.975200000000001     46.515199999999993     49.698899999999981
H      51.368500000000004     50.392499999999998     53.070199999999986
H      49.859500000000004     52.016700000000000     54.137000000000000
H      48.806300000000000     53.967599999999990     52.717199999999991
H      50.999900000000004     48.819699999999997     51.123799999999989
H      53.105200000000004     49.907699999999991     48.039099999999991
H      53.067600000000006     51.421099999999996     48.474999999999994
H      44.513500000000001     42.304999999999993     46.640400000000000
H      47.789200000000001     52.237799999999993     45.302699999999987
H      45.532200000000003     53.169599999999988     46.577999999999989
H      47.423400000000001     54.697000000000003     47.547499999999999
H      46.655600000000000     54.111699999999999     48.957200000000000
H      45.301700000000004     50.983400000000003     47.955500000000001
H      46.021300000000004     51.493200000000002     49.231799999999993
H      42.718600000000002     41.302999999999997     44.586900000000000
H      44.368900000000004     44.982199999999992     44.977899999999991
H      42.851300000000002     42.804899999999989     43.849799999999988
H      51.638700000000007     50.266899999999993     44.806299999999993
H      53.281399999999998     49.730699999999999     50.459599999999995
H      50.023299999999999     49.761499999999998     49.749399999999994
H      45.327600000000004     51.327900000000000     45.471199999999996
H      46.368000000000002     49.887500000000003     45.948099999999997
H      46.887400000000000     49.905199999999994     43.454899999999995
H      48.229600000000005     50.813499999999991     43.870699999999999
H      46.575200000000002     51.368200000000002     43.151100000000000
H      44.041400000000003     53.651199999999989     49.251499999999993
H      43.709200000000003     53.583500000000001     47.772599999999997
H      43.376500000000000     52.211799999999997     49.119699999999980
H      51.558799999999998     46.550699999999992     43.189999999999998
H      50.267800000000001     47.040999999999997     41.863000000000000
N      50.640999999999998     47.356099999999998     42.919599999999988
