194

C      58.667599999999979     45.924999999999997     51.351014999999997
C      58.760919999999984     44.513300000000001     50.830714999999998
C      57.069809999999983     48.365399999999994     48.155815000000004
C      57.973669999999991     47.057099999999998     50.721415000000000
C      58.229719999999986     44.630299999999998     49.397514999999999
C      55.951739999999987     47.644999999999996     48.968815000000006
C      57.308039999999991     46.930699999999995     49.288115000000005
C      57.880559999999988     45.705599999999997     48.490015000000000
C      59.126119999999979     45.769399999999997     52.840015000000001
C      59.586239999999982     44.621200000000002     53.513814999999994
C      59.657529999999987     43.125400000000006     52.811914999999999
C      59.302659999999982     43.255500000000005     51.269415000000002
C      58.912229999999987     46.819299999999998     53.899214999999991
C      59.590979999999981     46.918399999999998     55.183014999999997
C      60.093669999999982     45.622300000000003     55.676614999999991
C      60.176129999999979     44.453700000000005     54.859814999999990
C      58.346779999999988     47.869499999999995     53.156814999999995
C      57.662079999999982     47.911800000000007     51.861214999999994
C      56.102879999999992     48.253200000000000     51.512614999999997
C      54.964049999999979     48.020800000000001     50.324515000000005
C      58.372759999999992     44.490900000000003     47.919015000000002
C      58.840059999999987     41.782500000000006     49.142615000000006
C      59.535419999999988     42.207199999999993     50.344515000000001
C      54.132129999999989     49.184899999999999     50.082915000000000
C      52.697829999999989     49.363500000000002     50.557015000000000
C      55.378719999999987     47.550100000000000     52.851115000000007
C      49.832499999999968     52.015899999999995     51.608314999999997
C      48.959699999999984     53.074699999999993     51.142115000000004
C      47.145100000000006     48.282299999999999     49.454615000000004
C      46.283299999999983     48.817100000000003     48.311815000000003
C      49.592499999999994     50.646400000000000     51.047415000000001
C      48.299799999999991     51.582700000000003     48.986215000000001
C      48.291600000000017     48.950700000000005     50.259514999999993
C      46.635399999999990     49.971700000000006     47.572215000000000
C      48.654999999999994     50.373899999999992     50.009315000000001
C      47.573299999999982     51.092700000000001     47.719215000000005
C      50.804310499999985     52.130699999999990     52.778415000000003
C      50.741350499999989     53.692599999999999     53.087714999999996
C      48.974099999999993     54.398299999999999     51.649414999999998
C      47.167799999999993     46.785899999999998     49.598015000000004
C      46.300299999999993     45.973300000000002     48.993115000000003
C      44.917799999999993     46.634199999999993     48.848615000000002
C      44.880699999999976     48.210600000000007     48.357714999999999
C      51.689577999999990     51.096999999999994     52.957515000000001
C      52.793359999999986     51.509599999999999     53.835014999999991
C      52.964109999999984     52.911599999999993     54.370514999999990
C      51.845659999999988     53.717400000000005     54.074614999999994
C      50.418299999999974     48.720100000000002     53.373015000000002
C      49.820499999999974     49.364800000000002     51.916214999999994
C      51.345156999999986     49.537799999999997     52.537715000000006
C      48.897300000000001     48.345900000000007     51.276115000000004
C      48.289699999999975     46.011600000000001     50.440415000000002
C      48.716799999999978     46.824500000000000     51.603615000000005
C      48.105700000000006     52.955099999999995     49.724315000000004
C      48.784799999999976     52.015199999999993     47.678515000000004
C      47.829000000000008     55.280700000000003     51.425015000000002
C      45.534499999999980     50.662500000000001     47.004014999999995
C      44.570299999999968     49.804700000000004     46.144475000000000
C      43.824900000000014     49.159799999999997     47.549015000000004
C      53.666299999999985     50.665900000000001     54.468515000000004
C      44.757599999999982     51.728699999999996     47.877314999999996
C      48.474899999999984     53.192600000000006     46.424515000000000
C      51.395159999999990     55.111399999999996     54.966715000000001
C      44.151499999999984     47.516499999999994     49.618615000000005
C      52.439499999999988     48.870400000000004     52.196015000000003
C      43.235599999999977     52.715799999999994     43.757505000000002
C      42.342799999999990     53.899899999999995     44.230315000000004
C      38.374799999999979     52.091099999999997     41.805475000000001
C      43.295000000000009     51.527899999999995     42.850075000000004
C      40.972399999999986     53.829299999999996     44.083365000000001
C      39.652799999999985     51.218499999999999     41.619135000000000
C      38.953599999999987     52.865700000000004     42.919004999999999
C      40.913100000000000     51.905800000000006     42.177725000000002
C      40.302899999999994     52.937399999999997     43.093784999999997
C      44.413299999999978     53.237500000000004     44.444275000000005
C      44.264699999999991     54.649600000000000     45.245374999999996
C      42.851100000000002     54.934600000000003     45.057025000000003
C      45.677299999999988     52.470900000000007     44.424215000000004
C      46.750000000000000     53.480899999999998     44.770945000000005
C      46.711799999999968     54.801700000000004     45.247225000000000
C      45.406099999999981     55.267699999999998     45.812105000000003
C      44.557000000000016     50.721700000000006     42.675155000000004
C      45.859999999999999     51.496100000000006     43.150765000000000
C      39.921099999999981     54.394700000000007     45.108775000000001
C      38.514099999999999     54.473099999999995     43.187375000000003
C      39.245999999999995     49.738599999999998     41.768865000000005
C      37.036599999999979     51.940599999999996     41.115535000000001
C      36.211199999999991     51.055500000000002     42.098415000000003
C      42.178699999999978     51.127599999999994     42.000765000000001
C      48.020099999999999     52.686200000000007     45.080974999999995
C      39.543299999999995     50.553500000000007     40.250565000000002
C      38.515599999999985     52.203999999999994     44.273265000000002
C      55.045399999999987     46.797999999999995     48.011715000000002
C      43.865000000000002     44.217800000000004     49.409914999999998
C      43.881000000000000     45.849899999999998     49.191715000000002
C      42.246499999999990     43.671399999999998     49.089614999999995
C      41.115799999999993     42.831000000000003     46.626514999999998
C      42.279399999999995     43.181900000000006     47.628114999999994
C      42.558300000000003     41.978800000000000     46.807115000000003
C      42.958500000000008     40.709600000000002     47.540215000000003
C      43.524799999999985     42.197099999999999     45.824605000000005
C      44.362399999999973     40.583800000000004     47.491815000000003
C      44.608799999999988     41.346100000000000     46.247055000000003
H      57.563169999999992     50.322300000000006     47.867215000000002
H      56.911159999999988     48.181000000000004     47.057015000000000
H      57.738969999999988     49.813099999999999     49.561615000000003
H      59.788639999999987     48.025500000000001     55.664115000000002
H      60.631879999999988     45.732900000000008     56.544214999999994
H      60.847999999999992     43.589600000000004     54.911314999999995
H      55.685589999999991     49.217400000000005     52.111614999999993
H      53.877719999999989     47.373300000000008     50.373215000000002
H      59.157609999999984     43.586700000000000     48.161015000000006
H      58.922759999999990     40.753900000000002     48.676315000000002
H      60.252389999999991     41.496200000000002     50.646715000000000
H      53.884769999999989     49.255600000000001     48.939215000000004
H      54.713399999999986     50.233799999999995     50.102415000000001
H      52.473659999999988     50.453399999999995     50.206015000000001
H      51.787329999999990     48.837399999999995     50.123715000000004
H      54.846669999999989     48.168600000000005     53.653215000000003
H      54.437679999999986     47.136699999999998     52.628014999999998
H      55.813749999999992     46.653100000000002     53.458214999999996
H      46.526499999999999     44.849499999999999     48.583714999999998
H      53.713079999999984     53.294299999999993     55.165914999999998
H      48.864799999999988     45.783000000000001     49.539114999999995
H      48.140099999999975     44.954700000000003     50.696715000000005
H      49.549399999999991     46.286700000000003     52.017714999999995
H      47.851199999999999     46.677299999999995     52.349615000000000
H      48.951700000000017     53.590300000000006     48.934314999999998
H      46.929599999999994     52.771400000000007     49.657814999999999
H      49.759299999999989     51.351800000000004     47.629815000000001
H      47.971400000000003     56.200800000000001     50.869514999999993
H      46.911099999999976     54.631500000000003     51.148115000000004
H      46.012400000000007     51.757799999999996     46.508314999999996
H      43.714899999999986     50.232499999999995     45.665185000000001
H      44.770899999999976     48.829600000000006     45.743865000000000
H      43.713999999999999     49.986700000000006     48.357515000000006
H      42.823199999999972     48.504500000000000     47.340015000000001
H      44.632099999999973     51.465499999999992     48.952314999999999
H      45.395800000000001     52.691200000000002     48.070615000000004
H      43.599099999999979     51.979599999999998     47.663115000000005
H      47.525899999999965     53.739500000000000     46.957814999999997
H      49.426099999999991     53.727099999999993     46.458115000000006
H      52.160309999999988     55.727999999999994     55.033815000000004
H      50.982042999999990     54.738300000000002     55.828815000000006
H      50.686199999999978     55.902699999999996     54.671814999999995
H      43.496699999999969     48.209399999999995     49.828315000000003
H      53.263529999999982     49.046900000000001     53.041015000000002
H      52.302689999999991     47.799199999999999     52.102114999999998
H      42.269699999999993     55.541000000000004     45.656535000000005
H      47.648899999999998     55.207799999999992     45.629335000000005
H      45.266099999999980     56.241999999999997     46.300295000000006
H      44.213699999999982     49.689700000000002     43.082705000000004
H      46.543799999999976     50.434699999999999     43.373315000000005
H      45.966000000000001     52.180100000000003     42.336455000000001
H      37.897899999999986     54.455399999999997     44.101465000000005
H      39.153299999999987     55.257999999999996     43.475975000000005
H      37.739499999999992     55.004300000000008     42.529984999999996
H      38.389699999999984     49.753999999999998     42.388315000000006
H      39.865599999999993     49.106900000000003     42.007315000000006
H      36.766199999999998     51.582499999999996     40.172875000000005
H      36.532899999999991     52.901699999999998     41.089595000000003
H      36.331799999999987     49.964199999999991     41.519315000000006
H      36.729299999999988     51.210200000000000     43.025295000000000
H      35.152000000000001     51.260600000000004     41.990605000000002
H      42.342500000000001     50.323399999999999     41.227365000000006
H      47.824900000000000     51.605800000000002     44.728584999999995
H      48.710399999999979     53.087899999999998     44.271915000000000
H      38.872899999999994     51.163500000000006     39.455785000000006
H      44.898999999999987     50.339700000000001     41.833394999999996
H      40.324199999999976     50.045899999999996     39.818155000000004
H      38.084299999999992     53.001100000000001     44.932655000000004
H      39.457799999999992     51.758399999999995     44.809055000000001
H      37.681399999999982     51.592400000000005     43.960035000000005
H      47.349299999999985     55.560600000000001     52.319014999999993
H      44.509999999999991     43.560300000000005     48.825515000000003
H      44.515699999999967     43.942200000000007     50.441914999999995
H      42.739899999999977     46.072600000000001     48.824915000000004
H      41.435099999999977     44.340000000000003     49.459315000000004
H      42.391199999999998     42.738599999999998     49.631415000000004
H      40.521999999999977     42.835000000000001     45.655155000000001
H      40.127099999999999     42.656100000000002     47.150815000000001
H      42.376599999999982     40.139299999999999     48.354015000000004
H      43.392299999999977     42.614700000000006     44.808454999999995
H      44.911400000000015     39.758000000000003     48.042415000000005
H      45.387899999999995     41.222900000000003     45.554505000000006
H      58.078179999999982     42.371100000000006     49.007715000000005
N      57.627709999999986     49.607599999999998     48.502215000000000
N      49.929099999999998     54.666699999999999     52.648814999999999
O      59.160449999999990     42.349600000000002     53.512714999999993
O      58.497419999999984     49.023099999999999     52.639314999999996
O      54.672229999999992     50.291000000000004     54.787215000000003
O      50.504099999999987     47.812700000000000     54.019215000000003
O      39.312699999999992     55.036200000000001     45.784334999999999
O      54.412679999999988     46.114799999999995     47.377315000000003
