70

C      45.737099999999991     51.324299999999987     48.207049999999995
C      45.218600000000002     48.602199999999996     47.144849999999998
C      42.629199999999997     47.774699999999996     45.546349999999997
C      49.191000000000003     48.403599999999997     47.126350000000002
C      46.501000000000005     48.893799999999999     47.981549999999999
C      43.608300000000000     46.885300000000001     45.212150000000001
C      49.860799999999998     47.711900000000000     46.029949999999999
C      47.041600000000003     47.176100000000005     46.402650000000001
C      47.648699999999998     48.274299999999997     47.152450000000002
C      45.607100000000003     47.340299999999999     46.366450000000000
C      43.876800000000003     48.441999999999993     47.996949999999998
C      43.056199999999997     50.344200000000001     46.598549999999996
C      43.348900000000000     48.843299999999999     46.663350000000001
C      42.617100000000001     46.290199999999999     45.925649999999997
C      46.339699999999993     49.096199999999996     49.603549999999998
C      45.151299999999999     48.581699999999998     50.242849999999997
C      43.717799999999997     48.635900000000007     49.337949999999999
C      45.003700000000002     46.652900000000002     45.240049999999997
C      44.001500000000000     47.032899999999998     48.352950000000000
C      46.625700000000009     50.368499999999997     49.019550000000002
C      42.385100000000001     48.587800000000001     44.144149999999996
C      44.940800000000003     49.320300000000003     51.690950000000008
C      49.528900000000000     50.036900000000003     47.250149999999998
C      51.920500000000004     44.691500000000005     45.335250000000002
C      53.145800000000008     44.596199999999996     46.331550000000000
C      51.487900000000010     46.035300000000007     44.804150000000000
C      53.591300000000004     46.188100000000006     46.390949999999997
C      51.117399999999996     46.778000000000006     45.977449999999997
C      52.358300000000000     47.153400000000005     46.864750000000001
C      49.693100000000001     48.095500000000001     48.489649999999990
C      51.595700000000008     48.151600000000002     45.844850000000001
C      51.135599999999997     48.076700000000002     48.817050000000002
C      52.370199999999997     47.618700000000004     48.260950000000001
H      45.711700000000000     50.991500000000002     47.177050000000001
H      46.283600000000000     52.323400000000007     47.940249999999999
H      49.242399999999996     47.808199999999999     45.095950000000002
H      47.563699999999997     46.707300000000004     45.416950000000000
H      47.151499999999999     48.801199999999994     50.290450000000000
H      45.080199999999998     47.430899999999994     50.475249999999996
H      42.664600000000000     48.512699999999995     49.908549999999998
H      43.131000000000000     46.453599999999994     49.049549999999989
H      44.968600000000002     46.592799999999997     48.438850000000002
H      44.702100000000002     51.160300000000007     48.875149999999998
H      47.601300000000002     50.758799999999994     49.484349999999999
H      41.525700000000001     49.369100000000003     44.169350000000001
H      43.134500000000003     49.214200000000005     44.049149999999997
H      41.752600000000001     47.945200000000000     43.418450000000000
H      45.765400000000000     49.013999999999996     52.581550000000000
H      44.698999999999998     50.389399999999995     51.553249999999998
H      44.178800000000003     48.834699999999998     52.256850000000000
H      50.674399999999999     50.050200000000004     47.410649999999997
H      49.344700000000003     50.355999999999995     48.190950000000001
H      48.966099999999997     50.712299999999999     46.343750000000000
H      42.526000000000003     44.352699999999999     46.502049999999997
H      45.133899999999997     45.112899999999996     44.158749999999998
H      52.104399999999998     44.114400000000003     44.413249999999998
H      51.186199999999999     44.072199999999995     45.818849999999998
H      53.763800000000003     43.676599999999993     46.129550000000002
H      52.796700000000001     44.434200000000004     47.326149999999998
H      50.179400000000001     46.092399999999998     44.617750000000001
H      52.510499999999993     46.404300000000006     44.300750000000001
H      54.474299999999999     46.307199999999995     46.976349999999996
H      54.072900000000004     46.229900000000001     45.209150000000001
H      49.012000000000000     48.263599999999997     49.305450000000000
H      52.211700000000000     48.157100000000000     45.026249999999997
H      51.557000000000002     48.065100000000001     49.909149999999997
H      52.996800000000007     47.690799999999996     49.029850000000003
O      45.591999999999999     46.075699999999998     44.046349999999997
O      42.858699999999999     51.418499999999995     46.477249999999998
O      42.017899999999997     44.849599999999995     45.686149999999998
