95

C      45.507504999999988     41.946099999999987     43.174029999999988
C      44.052014999999997     42.117300000000000     43.329129999999999
C      45.147514999999999     42.135800000000003     38.108829999999990
C      43.645384999999997     42.130900000000011     38.284729999999989
C      45.940595000000002     41.507500000000007     41.913829999999997
C      43.364995000000000     41.762000000000000     42.119129999999991
C      45.941485000000000     41.998500000000007     39.313929999999992
C      42.937534999999997     42.094300000000004     39.541629999999991
C      45.245035000000001     41.873199999999997     40.579929999999997
C      43.689344999999996     41.802899999999994     40.667229999999996
C      46.817515000000000     42.103600000000000     44.307929999999992
C      46.323785000000001     42.305800000000005     45.627229999999990
C      44.861984999999997     42.396299999999997     45.652329999999999
C      43.784565000000001     42.672700000000006     44.649929999999991
C      47.513054999999994     42.351399999999998     46.521629999999995
C      47.189475000000002     46.060999999999993     48.518129999999992
C      48.466834999999996     45.499099999999999     48.761229999999991
C      51.750744999999995     49.849000000000004     55.787129999999998
C      46.683084999999998     47.296100000000010     49.199229999999993
C      50.758944999999997     50.802200000000013     55.216729999999991
C      51.885244999999998     48.605800000000002     55.116430000000001
C      49.439745000000002     46.237800000000007     49.642130000000002
C      49.123564999999999     51.679200000000009     53.336229999999993
C      48.260565000000000     51.220199999999991     52.301029999999990
C      51.877745000000004     47.175500000000014     52.802529999999997
C      51.352644999999995     47.506199999999993     51.503629999999994
C      47.659025000000000     49.501000000000005     50.631329999999998
C      50.079344999999996     50.657799999999995     54.001829999999991
C      51.543144999999996     48.343000000000018     53.704429999999995
C      47.770494999999997     48.164500000000018     49.945329999999991
C      48.490735000000001     49.858499999999992     51.686929999999997
C      48.969854999999995     47.521599999999992     50.158929999999991
C      49.978345000000004     48.083100000000002     51.237929999999999
C      50.361045000000004     49.280500000000018     53.430129999999998
C      49.617644999999996     48.975099999999998     52.219829999999995
C      50.851645000000005     45.693300000000008     49.788130000000002
C      51.810445000000001     46.529100000000000     50.441829999999989
C      46.233985000000004     45.610599999999991     47.404429999999998
C      46.445624999999993     44.369000000000000     46.847329999999992
C      47.629674999999992     43.475999999999999     47.421529999999997
C      48.651274999999998     44.111800000000002     48.342329999999997
C      50.030244999999994     43.777600000000007     48.464229999999993
C      45.626354999999997     47.876800000000017     47.157629999999990
C      45.418225000000000     47.913700000000006     48.653929999999995
C      45.163224999999997     46.530700000000010     46.600029999999997
C      50.394244999999998     51.873499999999993     56.116629999999994
C      49.587845000000002     53.179999999999993     55.298129999999993
C      49.004604999999998     53.077600000000004     53.774830000000001
C      53.078144999999999     46.457099999999997     52.985729999999997
C      49.001014999999995     51.516000000000005     56.900795000000002
C      44.828234999999999     49.018599999999992     46.917929999999991
C      49.240344999999991     50.654300000000006     58.329960000000000
C      50.035744999999999     53.961900000000000     52.958430000000000
C      43.700505000000000     46.132400000000004     46.871629999999989
C      45.617834999999999     43.590199999999996     45.778829999999992
H      45.425235000000001     42.574100000000001     36.975829999999995
H      43.139364999999998     42.167699999999996     37.342329999999997
H      46.932265000000001     41.141300000000001     41.771430000000002
H      42.277994999999997     41.704300000000003     42.252629999999989
H      46.925984999999997     42.551900000000003     39.060829999999989
H      41.970455000000001     42.037999999999997     40.130829999999996
H      47.441665000000000     41.177099999999996     44.338729999999991
H      42.603604999999995     42.590000000000003     44.722329999999992
H      47.737714999999994     42.808000000000007     44.029629999999990
H      48.142984999999996     41.573800000000006     46.614629999999998
H      51.901145000000000     50.042500000000004     56.900506000000000
H      47.431584999999998     51.971599999999995     51.764130000000002
H      52.710944999999995     46.162899999999993     50.835229999999989
H      50.722344999999990     43.060900000000004     48.046029999999995
H      46.960384999999995     50.355300000000014     50.282530000000001
H      46.593505000000000     48.006900000000002     46.867929999999994
H      44.615784999999995     47.907500000000013     49.183929999999997
H      45.328374999999994     46.283699999999996     45.556129999999989
H      51.240344999999998     52.116199999999992     57.120488000000002
H      48.795654999999996     53.691500000000005     55.897629999999999
H      50.323745000000002     54.066000000000003     55.287029999999994
H      48.010075000000001     53.267900000000012     53.781329999999990
H      48.286845000000000     52.319599999999994     56.926321000000009
H      48.273814999999999     51.022800000000004     56.346629999999998
H      44.037514999999999     49.249899999999997     47.645829999999997
H      44.898824999999995     49.745000000000005     46.086930000000002
H      49.543345000000002     49.554400000000001     58.260080000000009
H      50.099544999999992     51.080299999999994     59.024170000000005
H      48.266154999999998     51.084400000000002     58.959250000000004
H      50.695245000000000     54.576799999999992     52.197029999999991
H      49.503844999999998     53.431299999999993     51.959529999999994
H      49.865044999999995     54.858699999999999     53.522329999999990
H      43.389575000000001     44.875300000000010     46.566730000000000
H      43.408065000000001     46.257599999999996     47.924429999999994
H      43.032634999999999     47.081199999999995     46.506229999999995
H      45.427924999999995     44.436499999999995     45.135529999999996
H      51.989044999999997     43.907000000000011     48.947629999999997
N      51.119844999999998     44.474800000000002     49.026029999999999
O      54.029544999999999     45.878300000000010     53.072829999999989
O      52.224944999999991     47.578199999999995     55.712730000000001
