6

C      47.887049999999995     47.468099999999993     47.587199999999989
C      48.379350000000002     48.387699999999995     48.497399999999999
H      47.096249999999998     46.627099999999999     47.864300000000000
H      48.204149999999998     47.303600000000003     46.500900000000001
H      48.903750000000002     49.372900000000001     48.273199999999989
H      47.970950000000002     48.425600000000003     49.499099999999999
