22

C      45.328099999999992     47.390999999999991     47.515514999999979
C      45.545100000000012     48.724900000000005     48.410714999999996
C      46.411600000000000     47.237800000000007     46.679640999999990
C      46.872900000000008     48.583200000000005     49.223294999999993
C      47.858499999999999     47.665300000000002     47.014187999999990
C      48.067100000000003     47.993499999999997     48.454934999999992
C      49.068700000000000     47.137200000000007     46.552499999999995
C      49.328499999999998     47.939400000000006     49.230994999999993
C      50.369500000000002     46.964700000000008     47.361154999999997
C      50.604300000000002     47.406800000000004     48.737155000000001
H      45.316900000000004     46.483400000000003     48.112894999999995
H      44.589700000000001     47.305999999999997     46.860983999999988
H      45.386500000000005     49.599400000000003     47.805674999999994
H      44.910900000000005     48.495699999999999     49.301944999999989
H      46.237500000000004     46.443899999999999     45.901645000000002
H      46.250300000000003     47.991500000000002     45.790245000000013
H      47.061600000000006     49.377899999999997     49.955054999999987
H      46.482400000000005     47.973900000000000     50.225254999999990
H      48.607099999999996     46.400599999999997     45.774745000000010
H      49.420600000000000     48.061800000000005     50.197744999999998
H      51.069900000000011     46.561000000000007     46.641123999999991
H      51.410299999999999     47.257400000000004     49.355244999999996
