22

C      46.002234999999985     46.851399999999998     48.930549999999982
C      45.993634999999998     48.039400000000001     49.976349999999989
C      46.389484999999993     47.311499999999995     47.573249999999994
C      47.391274999999986     48.680399999999992     50.083949999999994
C      47.585744999999996     48.430899999999994     47.292650000000002
C      48.099875000000004     48.761099999999999     48.651949999999992
C      48.012184999999995     48.627200000000002     46.030650000000001
C      49.523124999999986     49.036299999999997     48.679849999999995
C      49.411354999999993     49.210599999999999     46.071049999999993
C      50.043424999999992     49.265500000000003     47.361749999999994
H      45.201674999999994     46.127399999999994     49.196849999999991
H      46.939704999999996     46.127600000000001     49.248149999999988
H      45.763034999999995     47.711200000000005     50.892549999999993
H      45.156974999999996     48.722200000000001     50.134250000000002
H      46.705734999999997     46.465400000000002     47.088749999999997
H      48.066194999999993     48.862600000000000     50.971950000000000
H      47.255614999999999     49.765699999999995     50.358749999999993
H      47.542664999999992     48.228200000000001     45.170749999999991
H      50.161624999999994     48.996600000000001     49.546949999999988
H      49.859424999999995     49.432199999999995     45.028050000000000
H      50.843025000000004     49.872600000000006     47.584649999999989
H      45.361734999999996     47.442099999999996     46.959449999999997
