22

C      46.301349999999999     46.411949999999990     49.137799999999999
C      46.653850000000006     45.900549999999996     47.570700000000002
C      47.503649999999993     47.136350000000007     49.724800000000002
C      47.303150000000002     46.990449999999996     46.641000000000005
C      47.945549999999997     48.287649999999999     48.770600000000002
C      48.177450000000007     47.913650000000004     47.318899999999999
C      48.729849999999999     49.337850000000003     49.302499999999995
C      48.888949999999994     48.736649999999997     46.483400000000003
C      49.583749999999995     50.259749999999997     48.497000000000000
C      49.601250000000007     49.848650000000006     47.091200000000001
H      45.455650000000006     47.070949999999996     48.998400000000004
H      46.026349999999994     45.560649999999995     49.773300000000006
H      45.892150000000001     45.256249999999994     47.250500000000002
H      47.300749999999994     45.043049999999994     47.995100000000008
H      48.517250000000004     46.697050000000004     49.869700000000009
H      47.336649999999992     47.609950000000012     50.564899999999994
H      47.835350000000005     46.301150000000007     45.796000000000006
H      46.640249999999995     47.431450000000012     45.894700000000000
H      48.796949999999995     49.696250000000006     50.290800000000004
H      48.788550000000001     48.606949999999998     45.435100000000006
H      50.255349999999993     50.956950000000006     49.073400000000007
H      50.544349999999994     50.234650000000002     46.725000000000009
