22

C      49.241549999999989     49.444999999999993     49.625949999999989
C      50.349250000000005     48.676300000000005     48.368150000000000
C      47.802849999999999     49.379300000000001     49.257349999999995
C      49.660450000000004     47.166100000000000     48.319150000000000
C      47.509250000000002     48.519100000000002     48.106549999999999
C      48.305550000000004     47.284900000000000     47.627049999999997
C      46.304250000000003     48.749000000000002     47.413350000000001
C      47.672450000000005     46.438099999999999     46.695649999999993
C      45.570749999999997     47.845300000000002     46.549050000000001
C      46.478249999999996     46.664600000000000     46.132849999999998
H      49.379049999999999     48.972200000000001     50.609550000000006
H      49.471250000000005     50.443500000000000     49.737450000000003
H      51.322849999999995     48.874500000000005     48.817049999999995
H      49.969850000000001     49.505100000000006     47.759349999999998
H      47.196949999999994     50.351500000000009     49.243350000000000
H      47.259850000000007     49.180300000000003     50.119650000000000
H      49.763449999999999     47.383099999999999     49.509650000000001
H      50.550850000000004     46.994500000000002     47.692349999999998
H      45.800950000000007     49.730600000000003     47.590849999999996
H      48.167549999999999     45.556500000000000     46.321549999999995
H      44.677150000000005     48.014900000000004     45.903649999999999
H      46.033049999999996     45.963600000000000     45.390449999999994
