22

C      48.419919999999991     45.596954999999994     47.298099999999991
C      49.548089999999988     45.674574999999997     48.247600000000006
C      47.112349999999992     46.012435000000004     48.119800000000012
C      49.878449999999987     47.263215000000010     48.674400000000006
C      47.394889999999990     47.577014999999996     48.274500000000003
C      48.602979999999988     48.256215000000005     48.559399999999997
C      46.032959999999989     48.180655000000009     48.435400000000001
C      48.539980000000000     49.612344999999998     48.529899999999998
C      46.176899999999989     49.551275000000011     49.055099999999996
C      47.357259999999997     50.314235000000004     48.804000000000002
H      48.134379999999993     44.580964999999999     47.040199999999999
H      48.425369999999987     46.213595000000005     46.416399999999996
H      50.571549999999988     45.743014999999993     47.753900000000002
H      49.520669999999981     44.902805000000001     49.085999999999999
H      47.285289999999989     45.555555000000005     49.160399999999996
H      46.034709999999990     45.693845000000003     47.615200000000002
H      50.854450000000000     47.618645000000008     48.233699999999999
H      50.350849999999994     47.448755000000013     49.583600000000004
H      45.464499999999987     47.451885000000004     48.936600000000013
H      49.469979999999993     50.147354999999997     48.577700000000007
H      45.145550000000000     49.987974999999999     49.553399999999996
H      47.381209999999996     51.419035000000001     49.069199999999995
