6

C      47.780850000000001     48.117149999999995     47.482799999999997
C      48.558650000000007     48.133449999999996     48.674300000000002
H      48.181150000000009     47.384950000000003     46.469900000000010
H      46.839649999999999     48.806449999999998     47.416100000000000
H      48.226950000000009     48.769649999999999     49.530099999999990
H      49.160350000000001     47.193550000000002     48.645700000000005
