25

C      48.362349999999992     49.697299999999984     47.856419999999993
C      49.115149999999993     49.228699999999989     46.687840000000001
C      47.745849999999997     49.021499999999989     49.066670000000002
C      50.037849999999999     47.167299999999997     48.036369999999991
C      46.960249999999995     47.697699999999998     48.432400000000001
C      47.327750000000002     47.174999999999997     47.166060000000002
C      45.534549999999989     47.668599999999998     48.895730000000000
C      48.942450000000001     47.660799999999995     46.842050000000000
C      47.960249999999995     47.412599999999998     49.461569999999995
C      49.517350000000000     47.168599999999998     49.238469999999992
H      48.566150000000000     45.489999999999995     46.784889999999997
H      45.022449999999999     48.529899999999998     49.464269999999999
H      48.984249999999996     50.510000000000005     48.129869999999997
H      47.464049999999993     50.325699999999998     47.497450000000001
H      50.192349999999998     49.486399999999989     46.718440000000001
H      48.798150000000000     49.810299999999998     45.736530000000002
H      45.141950000000001     46.952100000000002     48.197589999999998
H      47.016449999999999     49.579499999999996     49.580469999999998
H      50.977550000000001     47.021599999999992     47.651389999999999
H      46.550149999999995     47.649900000000002     46.628219999999999
H      45.173549999999999     47.050399999999996     49.760469999999998
H      49.346950000000000     47.210299999999989     45.900630000000000
H      47.248149999999988     46.967500000000001     50.189970000000002
H      49.946449999999992     46.712699999999998     50.263469999999998
O      47.514649999999996     45.691999999999993     46.788860000000000
