22

C      48.210899999999988     48.414544999999990     50.522099999999995
C      47.780999999999992     47.020035000000007     50.174999999999997
C      47.646999999999991     49.363865000000004     49.262299999999996
C      48.452299999999994     46.256465000000006     49.197199999999995
C      48.084299999999999     48.517174999999995     48.019899999999993
C      48.384699999999995     47.132305000000002     47.803799999999995
C      47.981399999999994     49.579965000000001     47.050200000000004
C      48.137000000000000     46.610105000000004     46.490899999999996
C      47.935400000000001     49.117194999999995     45.763899999999992
C      48.137100000000004     47.699245000000005     45.493399999999994
H      49.312600000000003     48.285475000000005     50.579099999999997
H      48.032100000000000     49.110185000000001     51.537499999999994
H      46.621499999999997     47.201144999999997     49.788600000000002
H      47.325400000000002     46.441254999999998     51.297100000000000
H      48.103099999999998     50.233265000000003     49.462000000000003
H      46.617800000000003     49.681764999999999     49.154799999999994
H      48.096599999999995     45.325535000000002     48.878599999999992
H      49.382199999999997     46.362795000000006     49.567700000000002
H      47.765000000000001     50.674464999999998     47.174300000000002
H      48.056100000000001     45.639605000000003     46.213899999999995
H      47.979600000000005     49.949465000000004     44.996399999999994
H      47.860699999999994     47.312775000000002     44.462500000000006
