32

C      48.465849999999996     49.090664999999987     50.161799999999999
C      47.054250000000003     48.237265000000001     45.351299999999995
C      48.686850000000007     49.011464999999994     48.683199999999999
C      48.228149999999999     48.558164999999995     46.124899999999997
C      47.158050000000003     48.573765000000002     50.651299999999992
C      45.758750000000006     47.991565000000001     45.872399999999999
C      44.726850000000006     47.814964999999994     49.503500000000003
C      44.248850000000004     47.901864999999994     48.182000000000002
C      47.722850000000008     48.815364999999993     47.604299999999995
C      46.143650000000001     48.323964999999994     49.656499999999994
C      45.461450000000006     48.171765000000001     47.271200000000007
C      46.425550000000001     48.465865000000001     48.208100000000002
C      49.732550000000003     49.283351000000003     50.992400000000004
C      52.291650000000004     48.843964999999990     50.783400000000000
C      51.065449999999998     49.450431999999999     50.422699999999992
C      50.091750000000005     48.864865000000002     48.232799999999997
C      50.462750000000000     48.845565000000001     46.837100000000007
C      51.500450000000001     49.212245200000005     48.892300000000006
C      43.911650000000002     46.888964999999992     50.651799999999994
H      47.342250000000007     48.417764999999996     44.257999999999996
H      47.122350000000004     48.452364999999993     51.608999999999995
H      45.198250000000002     47.752764999999989     45.062100000000001
H      43.496850000000002     47.075564999999990     47.902799999999999
H      49.303950000000000     50.202334999999998     51.474199999999996
H      51.564250000000001     49.013664999999996     46.469999999999999
H      52.258150000000001     48.382865000000002     48.628699999999995
H      51.891249999999999     49.983651000000002     48.416799999999995
H      42.833150000000003     47.219164999999997     50.534399999999991
H      44.127650000000003     46.922964999999998     51.742000000000004
H      43.831050000000005     45.797665000000002     50.423299999999998
N      49.535650000000004     48.691264999999994     45.831599999999995
O      53.166849999999997     48.286164999999990     51.295900000000003
