22

C      47.371499999999990     49.967819999999989     47.422349999999994
C      46.200900000000004     49.633380000000002     49.712950000000006
C      48.290100000000010     48.979050000000001     46.459750000000000
C      46.686999999999998     49.045500000000004     48.390450000000001
C      48.443300000000008     47.893979999999999     47.678849999999997
C      47.373000000000005     47.651629999999997     48.557649999999995
C      49.802400000000006     47.253561000000005     47.666449999999998
C      47.469800000000006     46.686616999999998     49.697249999999997
C      49.746600000000001     46.049520000000030     48.481350000000006
C      48.711100000000002     45.915220000000005     49.556650000000005
H      48.346699999999998     50.402249999999995     47.973050000000001
H      46.512799999999999     50.807779999999994     47.213949999999997
H      45.854500000000002     50.533569999999997     49.110650000000007
H      46.844499999999996     50.347120000000004     50.117249999999999
H      49.175200000000004     49.606269999999995     46.029049999999998
H      47.766400000000004     48.566739999999996     45.558350000000004
H      45.660400000000010     48.641199999999998     47.870849999999990
H      50.552999999999997     47.538120000000006     47.025949999999995
H      46.632000000000005     46.797439999999995     50.441649999999996
H      50.598799999999997     45.472420000000014     48.292049999999989
H      48.944600000000008     45.192220000000006     50.179550000000006
H      45.401200000000003     49.655609999999996     50.391050000000007
