21

C      46.917849999999994     45.967149999999990     46.709099999999992
C      47.129249999999999     48.450950000000006     47.233200000000004
C      48.439149999999998     46.513149999999996     46.548300000000005
C      46.076750000000004     47.358050000000006     46.936299999999996
C      48.512050000000002     48.107550000000003     47.034600000000005
C      47.997550000000004     48.430149999999998     48.388900000000000
C      49.399950000000004     49.205349999999996     46.605399999999996
C      48.839849999999998     49.265349999999998     49.359000000000002
C      49.805849999999992     50.251249999999999     47.419800000000002
C      49.710149999999999     50.183850000000007     48.886500000000005
H      46.468850000000003     45.585949999999997     45.884399999999992
H      46.736649999999997     45.140550000000005     47.522200000000005
H      47.109650000000002     49.391649999999998     46.784799999999997
H      49.085449999999994     45.768249999999995     47.047199999999997
H      49.072050000000004     46.111950000000007     45.678000000000004
H      45.533050000000003     47.716350000000006     46.011100000000006
H      45.396550000000005     47.329949999999997     47.703399999999995
H      49.589449999999999     49.187250000000006     45.604499999999994
H      48.783450000000002     48.755449999999996     50.395500000000006
H      50.603449999999995     50.706649999999996     47.171900000000001
H      50.233750000000001     50.859449999999995     49.541099999999993
