6

C      48.253749999999997     48.211149999999996     47.422399999999989
C      47.651449999999997     47.802250000000001     48.578099999999992
H      47.941050000000004     49.035550000000001     46.784999999999997
H      49.171149999999997     47.652050000000003     47.260400000000004
H      48.032550000000001     46.964449999999999     49.215000000000003
H      46.828850000000003     48.478149999999999     48.829799999999992
