22

C      46.964349999999989     45.574299999999994     46.975114999999988
C      48.568749999999994     45.704400000000000     46.514364999999998
C      46.372249999999994     47.035499999999992     47.262094999999995
C      49.449749999999995     46.159100000000002     47.604064999999999
C      47.348050000000001     47.931499999999993     47.808304999999997
C      48.695749999999990     47.403299999999994     48.321705000000001
C      46.933049999999994     49.320399999999999     48.120424999999990
C      49.392650000000003     48.317900000000002     49.242264999999996
C      47.687150000000003     50.208800000000004     49.134414999999997
C      48.796149999999997     49.590799999999994     49.748304999999995
H      46.847749999999998     44.936099999999996     47.892975000000000
H      46.337049999999998     44.980799999999995     46.453894999999996
H      48.690349999999995     46.242500000000000     45.514744999999998
H      49.107950000000002     44.807899999999997     46.382674999999999
H      45.619050000000001     46.674600000000005     48.079635000000003
H      45.767249999999997     47.494399999999992     46.279204999999997
H      49.934349999999995     45.608799999999995     48.618715000000002
H      50.380949999999999     46.282400000000003     47.316274999999997
H      46.100650000000002     49.967700000000001     48.046444999999999
H      50.379149999999996     47.929399999999994     49.868145000000005
H      47.357249999999993     51.192100000000003     49.511724999999998
H      49.109650000000002     50.369800000000005     50.485255000000002
