5

C      48.296699999999994     48.065049999999999     48.199414999999995
H      48.544100000000000     47.025450000000006     48.567014999999998
H      48.658200000000001     48.974549999999994     48.794714999999997
H      48.784700000000001     47.832949999999997     47.205285000000003
H      47.215299999999999     48.216350000000006     48.113534999999999
