22

C      46.981249999999996     49.649349999999991     46.367799999999988
C      47.861649999999997     48.637149999999991     45.409399999999991
C      47.493650000000002     49.560549999999992     47.889799999999994
C      48.819749999999999     47.365650000000002     46.215899999999991
C      47.563950000000006     48.165049999999994     48.400800000000004
C      48.409850000000006     47.330849999999998     47.713899999999995
C      47.277249999999995     47.952749999999995     49.746799999999993
C      49.296750000000003     46.285049999999998     48.271699999999996
C      47.903549999999996     46.839849999999998     50.457700000000003
C      48.979950000000002     46.155349999999999     49.673299999999998
H      45.842050000000000     49.573349999999991     46.543800000000005
H      47.324650000000005     50.629350000000002     46.081599999999995
H      48.461849999999998     49.130150000000000     44.621899999999997
H      47.217250000000007     47.884749999999997     44.945499999999996
H      46.901750000000007     50.247850000000000     48.666699999999992
H      48.449849999999998     49.893349999999998     47.975700000000003
H      49.857550000000003     47.308250000000001     45.976100000000002
H      48.129950000000008     46.521649999999994     45.925600000000003
H      47.028450000000007     48.789549999999991     50.270300000000006
H      50.157950000000000     45.588549999999998     47.986400000000003
H      47.591650000000001     46.403350000000003     51.378100000000003
H      49.224950000000007     45.370649999999998     50.519899999999993
