69

C      47.279549999999993     46.409699999999994     47.460599999999992
C      48.666849999999997     46.809699999999999     47.795810000000003
C      50.999049999999997     53.540700000000001     51.830890000000004
C      46.110450000000000     47.227199999999996     47.618060000000000
C      49.804950000000005     53.100200000000001     52.545249999999996
C      48.981449999999995     48.028900000000007     48.600859999999997
C      47.459050000000005     51.885199999999998     51.659199999999998
C      45.913849999999996     50.343400000000003     49.892489999999995
C      49.883849999999995     50.579000000000001     50.182870000000001
C      49.015550000000005     52.016400000000004     51.969990000000010
C      50.171350000000004     51.791600000000003     50.982820000000004
C      46.595550000000003     49.161299999999997     49.262190000000004
C      47.186850000000000     50.836300000000008     50.589780000000005
C      48.079949999999997     49.141900000000000     48.962090000000003
C      48.344250000000002     50.277299999999997     49.951410000000010
C      50.250749999999996     48.171599999999998     49.341680000000011
C      50.595649999999992     49.360399999999998     49.856920000000002
C      46.928449999999998     44.919899999999998     47.368060000000000
C      48.038449999999997     43.973300000000002     47.158040000000000
C      49.446050000000000     44.576700000000002     47.076410000000003
C      49.791350000000008     45.856200000000001     47.751199999999997
C      51.200649999999996     46.140400000000000     48.075180000000003
C      51.344049999999996     47.332400000000000     48.854290000000006
C      45.707250000000002     48.331800000000001     48.447630000000004
C      44.849350000000001     46.408900000000003     46.894100000000002
C      45.694350000000000     44.214900000000000     47.399290000000001
C      49.308149999999998     54.075599999999994     53.706050000000005
C      48.404449999999997     53.322899999999990     54.642850000000003
C      46.550350000000002     52.488100000000003     52.779650000000004
C      44.550849999999997     45.029600000000002     47.426819999999999
C      46.504249999999999     53.095100000000002     51.261169999999993
C      46.907250000000005     53.488999999999997     54.093750000000000
C      50.117550000000008     43.691099999999999     46.056430000000006
C      47.883550000000000     41.877499999999998     44.490960000000001
C      48.735650000000007     42.551499999999997     43.545030000000004
C      49.028149999999997     43.350900000000003     44.570200000000000
C      48.740250000000003     42.642699999999998     42.097849999999994
C      48.877650000000003     44.787500000000001     44.025150000000004
C      48.532150000000001     43.892400000000002     41.478850000000037
C      48.429850000000002     44.841400000000000     42.726320000000001
H      51.758750000000006     53.956600000000002     52.752250000000004
H      44.762450000000001     50.498500000000007     50.132680000000008
H      51.526350000000008     49.323599999999999     50.370890000000003
H      47.742049999999992     43.011000000000003     47.374380000000002
H      52.020949999999999     45.548800000000000     47.641320000000000
H      52.425650000000005     47.883800000000008     48.858220000000003
H      44.632649999999998     48.397799999999989     48.835850000000008
H      44.681250000000006     46.167099999999998     45.883990000000004
H      44.010950000000001     47.082500000000010     47.291430000000005
H      45.615949999999998     43.200000000000003     47.268470000000001
H      48.843450000000004     55.073700000000002     53.277150000000006
H      49.978049999999996     54.656800000000004     54.403250000000000
H      48.244150000000005     53.594600000000000     55.535750000000007
H      48.606750000000005     52.326499999999996     54.624250000000004
H      43.574349999999995     44.603200000000001     47.465559999999996
H      45.861249999999998     51.559200000000004     52.804349999999999
H      46.958250000000000     54.068199999999997     51.197620000000001
H      46.267650000000003     52.640200000000000     50.343590000000006
H      46.261449999999996     53.384200000000007     54.906649999999999
H      46.784649999999999     54.393999999999991     53.463850000000001
H      51.036149999999992     44.428600000000003     45.770140000000005
H      50.603349999999992     42.772500000000001     46.353310000000000
H      48.566950000000006     40.926299999999998     44.751609999999999
H      47.132350000000002     42.114400000000003     45.212200000000003
H      49.348050000000001     41.941800000000001     41.513350000000010
H      49.100049999999996     45.626199999999997     44.623910000000002
H      48.395049999999998     44.243000000000002     40.464249999999993
H      48.832250000000002     45.738999999999997     42.395944000000000
N      51.269450000000006     52.671700000000001     50.798500000000004
