5

C      48.165449999999993     48.232349999999997     47.881842999999989
H      47.389149999999994     47.184250000000006     47.901043000000001
H      48.845250000000000     48.761849999999995     47.121043000000000
H      47.154750000000000     48.815749999999994     47.951943000000000
H      48.655349999999991     48.435549999999992     48.878957000000000
