22

C      47.493699999999997     49.866844999999998     49.197099999999992
C      49.016499999999994     49.773264999999995     49.154499999999999
C      46.923100000000005     48.479275000000001     49.608100000000007
C      49.768299999999996     48.559465000000003     48.965500000000006
C      47.495499999999993     47.327385000000007     48.537599999999998
C      48.804000000000002     47.668805000000006     48.015400000000000
C      46.474000000000004     46.480744999999999     47.917500000000004
C      49.212699999999998     46.688275000000004     46.960599999999999
C      46.842699999999994     45.983374999999995     46.670699999999997
C      48.279299999999992     45.941315000000003     46.237600000000000
H      47.151799999999994     50.141885000000002     48.103099999999998
H      47.075599999999994     50.685704999999999     49.780600000000007
H      49.256100000000004     50.397475000000000     48.290500000000009
H      49.465900000000005     50.360434999999995     49.932000000000002
H      47.546599999999998     48.391485000000003     50.544600000000003
H      45.974000000000004     48.563464999999994     49.934399999999997
H      50.220299999999995     48.018185000000003     49.885500000000008
H      50.615600000000001     48.867474999999999     48.369100000000003
H      45.384399999999999     46.516855000000007     48.099400000000003
H      50.238500000000002     46.584625000000003     46.680599999999998
H      45.999099999999999     45.573695000000001     45.951900000000009
H      48.530400000000000     45.314295000000001     45.455399999999997
