45

C      49.796634999999988     46.721999999999994     48.378599999999992
C      46.427934999999998     48.732500000000009     48.312599999999996
C      46.329794999999997     51.997000000000007     45.469600000000000
C      48.542974999999998     46.956200000000003     49.069399999999995
C      45.450954999999993     49.550400000000003     47.566199999999995
C      45.057534999999994     49.629500000000000     45.113000000000000
C      45.273754999999994     52.072400000000009     46.595599999999997
C      46.104684999999996     49.551300000000005     46.089599999999997
C      47.566314999999996     48.110300000000002     48.880199999999995
C      49.719594999999998     46.103800000000000     49.616699999999987
C      50.739444999999996     47.075200000000002     47.077399999999997
C      52.267544999999998     47.593800000000009     46.892999999999994
C      45.205224999999999     48.807499999999997     48.751899999999999
C      47.374254999999998     49.665900000000001     49.034600000000005
C      52.033045000000001     45.524700000000003     49.898199999999996
C      50.670644999999993     45.212700000000005     50.413499999999999
C      43.857894999999999     49.489800000000010     44.377199999999995
C      43.350514999999994     47.038400000000003     49.325399999999995
C      44.583234999999995     47.616100000000010     49.457799999999999
C      46.456384999999997     50.541000000000004     45.040799999999997
C      50.047534999999996     45.408300000000004     51.975400000000000
C      47.800384999999999     51.116100000000010     45.352399999999996
C      51.192044999999993     44.079799999999999     49.886299999999999
H      46.110304999999997     52.528500000000001     44.588499999999996
H      45.612105000000000     51.600000000000001     47.407100000000000
H      44.453914999999995     52.770299999999999     46.439099999999996
H      50.028254999999987     47.725100000000005     46.424699999999994
H      47.020624999999995     50.117700000000006     49.966699999999996
H      47.426845000000000     50.340100000000000     48.133699999999997
H      52.141745000000000     46.127100000000006     48.722099999999998
H      52.914644999999993     45.229500000000009     50.505799999999994
H      43.631155000000000     49.924900000000001     43.395199999999996
H      42.897584999999999     49.038000000000004     44.395299999999999
H      42.661355000000000     47.648100000000007     48.627599999999994
H      43.238274999999994     46.276000000000003     49.986799999999995
H      45.238045000000000     46.972000000000001     50.054799999999993
H      50.944744999999998     45.618100000000005     52.604800000000004
H      49.390744999999995     46.243000000000002     51.960799999999999
H      49.743424999999995     44.514699999999998     52.359099999999998
H      48.420724999999997     51.424399999999999     44.494899999999994
H      47.993824999999994     51.032000000000004     46.432599999999994
H      50.737944999999996     45.903900000000000     46.817699999999995
H      50.859844999999993     43.619199999999999     48.989500000000000
H      51.241744999999995     43.229700000000001     50.730899999999998
O      53.338645000000000     47.883299999999998     46.780999999999999
