50

C      45.983049999999992     47.578923499999988     44.416049999999991
C      46.790349999999997     47.517023500000001     43.395650000000003
C      46.970049999999993     46.614723499999990     40.586849999999998
C      46.523350000000001     47.197923499999995     41.943749999999994
C      46.947350000000007     47.977423499999993     40.782049999999998
C      44.791149999999995     47.436323499999993     45.031549999999996
C      46.984550000000006     45.458923499999990     39.757049999999992
C      46.944350000000007     49.433123500000001     40.417249999999996
C      45.818149999999996     46.967123499999992     46.018349999999998
C      49.406250000000007     48.840123499999997     50.293849999999992
C      48.249649999999995     49.332123500000002     49.511650000000003
C      48.734550000000006     47.726423500000003     47.590049999999991
C      50.331349999999993     47.998423499999994     49.370750000000001
C      47.544850000000004     48.428323499999998     46.721949999999993
C      47.341950000000004     49.463823499999997     45.533949999999990
C      47.147050000000000     48.723723499999998     44.108849999999990
C      50.165249999999993     47.490323499999995     48.109749999999991
C      47.905849999999994     48.813523499999995     48.100749999999991
C      49.611749999999994     48.899823499999989     51.737349999999992
C      48.696050000000007     49.622723499999999     52.572749999999999
C      47.675450000000005     50.177823499999995     51.821050000000000
C      47.372049999999994     50.009723500000000     50.392049999999998
C      51.043650000000007     48.957423499999997     52.468149999999994
C      49.935849999999995     49.246623499999991     54.725849999999994
C      48.787349999999996     49.762523499999993     53.993650000000002
C      49.705949999999994     49.351223499999996     56.162649999999999
C      46.375549999999997     50.736023499999995     45.591749999999990
C      46.184750000000001     47.825823499999991     47.112650000000002
H      47.320649999999993     45.127823499999998     38.804850000000002
H      46.545849999999994     44.557923499999994     40.105750000000000
H      46.352950000000000     50.131423499999990     40.809449999999998
H      47.049950000000003     49.527523499999994     39.351849999999999
H      47.863250000000001     50.135323499999991     40.945549999999997
H      45.911549999999998     45.975223499999991     46.341549999999998
H      51.307750000000006     47.855823499999993     49.926050000000004
H      48.220250000000000     49.812623499999994     45.583449999999999
H      47.302550000000004     49.453423499999992     43.353749999999991
H      47.102349999999994     50.724623500000000     52.462649999999996
H      46.461350000000003     50.355323499999990     49.880549999999999
H      48.062249999999999     50.380123500000003     54.603250000000003
H      46.902549999999998     51.442076500000006     46.259149999999991
H      45.577850000000005     50.609923500000001     46.306649999999991
H      46.034150000000004     51.224694500000005     44.807450000000003
H      45.705149999999996     48.765623499999997     47.085250000000002
H      45.679350000000007     47.339223499999996     48.115150000000000
H      43.901649999999997     46.770823499999999     44.469049999999996
H      50.711649999999999     46.695523500000000     47.308449999999993
N      50.902250000000002     48.765323500000001     53.935249999999996
O      49.390750000000004     49.658023499999992     57.195149999999998
O      52.098350000000003     48.959623499999999     51.895949999999999
