13

C      46.891099999999994     46.981999999999992     50.192449999999994
C      47.864200000000004     47.757100000000008     47.786850000000001
C      47.568300000000001     47.532200000000003     49.154750000000000
C      47.314600000000006     48.734700000000004     46.826550000000005
C      49.083700000000000     47.336100000000002     47.182750000000006
C      48.272700000000007     48.941200000000009     45.713850000000001
C      49.377699999999997     48.024100000000004     45.913249999999998
H      45.735700000000001     46.512900000000002     50.018450000000001
H      47.252699999999997     46.965000000000003     51.251950000000001
H      46.782800000000002     49.596800000000002     47.369350000000004
H      49.594900000000003     46.403199999999998     47.566850000000002
H      48.036099999999998     49.469700000000003     44.748049999999999
H      50.264299999999999     47.897300000000001     45.206449999999997
