17

C      46.766299999999987     46.962399999999995     47.477184999999999
C      46.692799999999998     49.448099999999997     48.651785000000004
C      49.260100000000001     48.787900000000008     48.799585000000008
C      48.024600000000000     49.209699999999998     48.181385000000006
C      49.006200000000000     47.094099999999997     48.830285000000003
C      46.940800000000003     48.485500000000002     47.282585000000005
C      47.810300000000005     46.415499999999994     48.253485000000005
C      49.196000000000005     49.739500000000007     47.703685000000000
H      46.130800000000001     50.367400000000004     48.474685000000008
H      49.869199999999999     49.158200000000008     49.621085000000001
H      46.294499999999999     46.181200000000004     46.706485000000001
H      46.522999999999996     49.152299999999997     49.738585000000000
H      49.716199999999994     47.091899999999995     47.965785000000004
H      49.303400000000003     46.415099999999995     49.525885000000002
H      46.562300000000000     48.947400000000002     46.261415000000000
H      47.719200000000008     45.338300000000004     48.743885000000006
H      49.324499999999993     50.661699999999996     47.277785000000002
