54

C      45.437549999999995     43.089649999999992     51.758349999999993
C      45.572549999999993     43.163049999999998     50.227449999999997
C      47.313050000000004     46.938550000000006     47.688150000000000
C      46.739450000000005     45.683550000000011     48.153950000000002
C      49.912350000000004     50.315150000000003     45.915849999999999
C      48.921849999999992     51.120950000000008     46.716850000000001
C      48.663650000000004     47.081450000000004     46.881350000000005
C      46.398250000000004     48.070250000000001     47.317950000000003
C      50.063749999999999     48.866349999999997     46.024149999999999
C      47.546650000000000     50.528850000000006     47.086949999999995
C      48.881850000000000     48.473749999999995     46.713149999999999
C      47.502049999999997     49.082549999999998     47.060150000000000
C      47.543250000000000     44.464250000000007     47.619750000000003
C      45.196349999999995     44.402649999999994     49.568449999999999
C      44.605750000000000     44.700550000000007     48.195450000000001
C      45.360050000000001     45.764250000000004     48.876550000000002
C      50.656449999999992     51.189750000000004     45.094650000000001
C      50.614149999999995     52.558350000000004     44.686650000000000
C      49.931749999999994     53.315750000000008     45.778250000000000
C      49.331949999999992     52.614050000000006     46.831250000000004
C      48.541950000000000     43.417649999999995     47.722649999999994
C      46.620049999999992     42.463750000000005     49.538350000000001
C      47.342349999999996     43.244150000000005     48.516150000000003
C      49.403949999999995     45.892850000000010     46.465650000000004
C      48.885549999999995     44.566550000000007     46.894250000000000
C      45.031549999999996     48.491050000000001     47.348750000000003
C      44.166249999999998     48.127049999999997     48.670449999999995
C      44.593950000000000     46.780950000000004     49.564850000000000
C      44.773649999999996     49.958950000000002     47.373449999999998
C      44.896749999999997     50.498649999999998     45.816049999999997
H      44.691949999999999     42.581350000000000     49.950049999999997
H      44.444049999999997     42.647649999999999     51.995349999999995
H      46.204250000000002     42.281450000000007     52.092250000000000
H      46.866349999999997     41.535150000000002     50.156349999999996
H      50.980249999999998     48.159149999999997     45.650849999999998
H      46.908649999999994     51.194450000000003     47.500650000000000
H      44.193649999999998     43.880949999999999     47.686450000000001
H      51.229849999999999     53.109750000000005     43.907750000000000
H      49.800150000000002     54.464849999999998     45.576950000000004
H      48.641750000000002     53.300150000000002     47.399149999999999
H      50.041349999999994     45.849950000000007     45.613250000000001
H      44.539450000000002     48.350250000000003     46.309449999999998
H      44.400449999999999     49.050349999999995     49.213050000000003
H      43.061949999999996     48.157449999999997     48.787950000000002
H      45.056750000000001     47.353949999999998     50.118150000000000
H      43.570650000000001     46.254850000000005     50.050649999999997
H      43.730449999999998     50.303349999999995     47.534050000000001
H      45.317450000000001     50.405750000000012     48.244850000000000
H      44.781549999999996     49.835450000000009     44.959650000000003
H      45.796650000000000     51.149150000000006     45.721650000000004
H      44.252749999999999     51.254550000000009     45.740850000000002
H      52.938050000000004     50.915050000000008     44.063250000000004
H      45.277549999999998     44.110250000000008     52.084650000000003
S      51.834949999999992     49.960449999999994     44.161549999999998
