22

C      46.233689999999996     50.079449999999987     49.167899999999996
C      45.681010000000001     49.495750000000001     47.776300000000006
C      47.939350000000005     50.097349999999992     49.046199999999999
C      46.683470000000000     48.228549999999998     47.066600000000008
C      48.455280000000002     48.658149999999992     48.698700000000002
C      47.987840000000006     47.678649999999990     47.662000000000006
C      49.761889999999994     48.224350000000001     49.249400000000009
C      48.525559999999999     46.330249999999992     47.487099999999998
C      50.197629999999990     46.873049999999992     49.135599999999997
C      49.586619999999996     45.862749999999991     48.353800000000007
H      45.931160000000006     49.639550000000000     50.024000000000001
H      45.938659999999999     51.169550000000001     49.218299999999999
H      45.285979999999995     50.005449999999996     46.808000000000007
H      45.049469999999999     48.541749999999993     48.312700000000007
H      48.384850000000000     50.484949999999998     50.017800000000008
H      48.204939999999993     51.071849999999998     48.419700000000006
H      46.822590000000005     48.514649999999989     45.975999999999999
H      46.329669999999993     47.192349999999990     46.678700000000006
H      50.265010000000004     48.841449999999995     49.942200000000000
H      48.273039999999995     45.676449999999988     46.573000000000008
H      50.950530000000001     46.647649999999999     49.740099999999998
H      50.013679999999994     44.830449999999999     48.428399999999996
