22

C      46.830699999999993     46.251249999999999     46.927399999999992
C      45.993299999999998     47.434549999999994     46.288599999999995
C      46.747399999999992     46.576950000000004     48.506200000000000
C      46.602699999999992     48.675649999999997     46.741199999999999
C      47.725199999999994     47.795049999999996     48.866999999999997
C      47.740299999999998     48.723149999999997     47.710799999999999
C      48.742599999999989     47.890849999999993     49.862099999999991
C      48.776999999999994     49.789750000000005     47.957200000000007
C      50.015899999999995     48.623150000000003     49.629100000000001
C      49.932099999999998     49.801849999999995     48.824099999999994
H      47.836999999999996     46.282050000000005     46.625499999999995
H      46.371499999999990     45.337349999999994     46.614200000000004
H      45.002000000000002     47.342250000000000     46.594400000000000
H      47.108699999999992     45.620749999999994     48.826799999999999
H      45.441499999999998     46.736950000000000     48.960100000000004
H      46.966400000000000     49.174050000000001     45.690300000000001
H      45.779499999999992     49.564550000000004     46.711300000000001
H      48.842099999999995     47.307549999999999     50.664200000000001
H      48.946199999999997     50.555150000000005     47.086199999999998
H      50.997999999999998     48.598649999999999     50.070599999999999
H      50.578699999999991     50.662650000000006     48.444800000000001
H      46.362499999999990     46.906349999999996     45.335799999999999
