22

C      48.752099999999992     47.567699999999988     49.353649999999995
C      47.275700000000001     47.885700000000000     50.153250000000000
C      47.275399999999998     46.744600000000005     47.274349999999998
C      46.707499999999996     48.896800000000013     49.186350000000004
C      48.341699999999996     47.581100000000006     47.842050000000000
C      47.023799999999994     48.534700000000015     47.722750000000005
C      49.421599999999998     48.598299999999995     47.378349999999998
C      46.821799999999996     49.340599999999995     46.420850000000002
C      49.142200000000003     49.248700000000014     46.175650000000005
C      47.857999999999997     49.621899999999997     45.610450000000000
H      49.239699999999999     46.725200000000001     49.711050000000000
H      49.285100000000000     48.562500000000000     49.389049999999997
H      47.508799999999994     47.976299999999995     51.243150000000000
H      46.707999999999998     46.997100000000003     50.088850000000001
H      47.672100000000000     46.479399999999998     46.305050000000001
H      47.231799999999993     45.717900000000000     47.948949999999996
H      47.416399999999996     49.820000000000007     49.278149999999997
H      45.530799999999999     48.914700000000011     49.215050000000005
H      50.469200000000001     48.870900000000006     47.891649999999998
H      45.827199999999998     49.799000000000007     46.227249999999998
H      49.917000000000002     49.857500000000002     45.482550000000003
H      47.850499999999997     50.282100000000000     44.756850000000000
