21

C      48.155899999999988     48.307699999999997     50.015749999999990
C      48.913999999999994     47.056600000000003     50.052250000000001
C      49.285699999999999     46.705200000000005     47.302549999999997
C      48.303699999999999     46.361999999999995     48.542849999999994
C      47.661499999999997     48.780100000000004     48.687750000000001
C      47.891500000000001     47.494100000000003     47.806750000000001
C      46.945399999999999     49.995000000000005     48.336749999999995
C      47.228900000000003     47.786299999999997     46.446449999999999
C      46.430699999999995     49.973100000000002     47.020649999999996
C      46.662399999999998     48.848200000000006     46.077949999999994
H      48.804300000000005     49.143600000000006     50.342749999999995
H      47.394200000000005     48.528300000000002     50.816249999999997
H      48.686100000000003     46.537499999999994     50.959750000000000
H      50.359100000000005     47.424300000000002     47.472549999999998
H      49.383000000000003     45.888000000000005     46.518349999999998
H      49.948799999999999     47.116399999999999     50.205949999999987
H      47.872400000000006     45.284400000000005     48.619049999999994
H      46.618800000000000     50.715599999999995     49.196249999999999
H      47.166099999999993     46.873599999999996     45.816049999999997
H      45.640899999999995     50.705299999999994     46.514249999999997
H      46.481599999999993     48.942499999999995     45.040250000000000
