6

C      48.437899999999992     47.788789999999992     47.512099999999997
C      47.609099999999998     48.192099999999996     48.529300000000006
H      48.664000000000001     48.447730000000000     46.685500000000005
H      48.966300000000004     46.791249999999998     47.706000000000003
H      47.033699999999996     49.208750000000002     48.890600000000006
H      47.577200000000005     47.546459999999996     49.314499999999995
