22

C      45.709749999999993     49.137849999999993     48.164149999999992
C      45.372749999999996     47.715649999999997     48.453550000000000
C      47.060950000000005     49.415049999999994     47.438349999999993
C      46.419049999999999     46.736750000000001     48.182949999999998
C      48.146850000000001     48.744550000000004     48.293450000000000
C      48.002549999999999     47.289349999999999     48.511749999999999
C      49.460850000000008     49.299250000000001     48.631149999999998
C      48.997450000000001     46.434349999999995     48.975549999999991
C      50.630650000000003     48.540449999999993     49.028349999999996
C      50.276049999999998     47.059749999999994     49.268449999999994
H      44.782049999999998     49.509050000000002     47.688549999999999
H      46.019549999999995     49.744249999999994     48.985449999999993
H      44.988349999999997     47.578749999999999     49.514850000000003
H      44.431250000000006     47.346450000000004     48.083750000000002
H      47.346149999999994     50.530550000000005     47.386649999999996
H      46.857450000000000     49.032250000000005     46.485149999999997
H      46.258250000000004     45.759050000000002     48.415749999999996
H      46.855549999999994     46.714349999999996     47.197749999999992
H      49.379049999999992     50.483649999999997     48.375149999999998
H      48.943950000000001     45.469449999999995     48.980749999999993
H      51.568749999999994     49.132049999999992     49.301349999999992
H      51.547650000000004     46.673749999999998     49.390949999999997
