11

C      48.689449999999987     48.358049999999992     49.309150000000002
C      47.346549999999993     47.825249999999990     46.812750000000008
C      48.373149999999995     47.717049999999993     47.936650000000000
H      49.590350000000001     47.786250000000003     49.824150000000003
H      49.069350000000000     49.417250000000003     49.515850000000000
H      46.409649999999999     47.723149999999997     47.405349999999999
H      46.991849999999999     48.679349999999992     46.107550000000003
H      48.339550000000003     46.582749999999997     48.291049999999998
H      49.284949999999995     47.767649999999996     47.417850000000001
H      47.541049999999998     47.115149999999993     46.076850000000007
H      47.715049999999991     48.181849999999990     49.923149999999993
