22

C      47.710519999999988     45.514124999999993     47.877150000000000
C      47.358009999999993     45.792935000000000     49.365249999999996
C      47.295540000000003     46.542175000000000     46.975749999999998
C      47.123059999999995     47.483694999999997     49.603850000000001
C      48.048270000000002     48.070684999999997     47.115649999999995
C      47.795760000000001     48.471024999999997     48.486950000000000
C      48.538039999999995     49.141165000000001     46.255950000000006
C      48.272250000000000     49.762014999999991     49.092850000000006
C      49.220890000000011     50.269625000000005     46.820150000000005
C      48.966830000000002     50.596924999999999     48.228050000000003
H      47.056139999999999     44.645875000000004     47.763349999999996
H      48.689149999999998     45.279454999999999     47.530049999999996
H      46.364019999999996     45.352125000000001     49.790250000000007
H      48.076920000000001     45.332785000000001     50.132150000000003
H      46.170919999999995     46.523624999999996     47.159550000000003
H      47.910319999999999     46.509685000000005     45.963050000000003
H      47.143490000000000     47.800725000000000     50.744350000000004
H      46.154029999999992     47.813434999999998     49.211950000000009
H      48.431389999999993     48.803505000000001     45.255649999999996
H      48.032809999999998     49.997595000000004     50.176150000000000
H      49.845970000000008     51.034364999999994     46.152650000000001
H      49.539760000000001     51.354124999999996     48.698550000000004
