14

C      48.028399999999984     47.953649999999996     49.330199999999998
C      48.450499999999991     47.527250000000002     48.100600000000000
C      48.497599999999991     47.384250000000002     45.660100000000000
C      49.255099999999999     47.722850000000001     46.853800000000007
C      46.942499999999995     47.325650000000003     50.162500000000009
C      46.500399999999999     46.270650000000003     49.465299999999999
C      47.284700000000001     46.519150000000003     48.105600000000003
C      48.336799999999997     49.328049999999998     49.554700000000011
H      50.233300000000000     48.234050000000003     46.851500000000001
H      46.712399999999995     47.479050000000001     51.261600000000001
H      45.766700000000000     45.655549999999998     49.709299999999999
H      47.043700000000001     45.877050000000004     47.211400000000005
O      47.873400000000004     47.027250000000002     44.738399999999999
O      48.759399999999999     50.344450000000002     49.894300000000001
