22

C      49.531099999999995     46.118264999999994     48.795349999999985
C      49.017200000000003     45.899065000000000     47.306050000000006
C      49.214900000000000     47.712454999999999     49.208649999999999
C      47.340899999999991     46.115414999999999     46.910350000000001
C      47.914999999999992     48.199504999999995     48.489550000000001
C      47.323799999999991     47.697254999999991     47.195150000000005
C      46.973699999999994     49.156165000000001     49.213550000000005
C      46.364699999999999     48.517224999999996     46.548549999999999
C      46.285200000000003     50.136764999999990     48.282149999999994
C      46.302099999999996     49.951864999999991     46.865649999999995
H      49.036799999999999     45.455395000000003     49.480049999999999
H      50.522599999999997     45.720615000000002     49.048549999999999
H      49.376400000000004     44.903494999999999     47.057949999999998
H      49.392200000000003     46.505424999999995     46.545250000000003
H      50.357500000000002     47.838794999999998     48.276850000000003
H      49.215400000000002     47.919145000000000     50.313150000000000
H      46.640100000000004     45.262655000000002     47.264350000000000
H      47.100999999999999     45.733055000000000     45.888650000000005
H      47.051900000000003     49.272884999999995     50.215949999999999
H      45.847899999999996     48.180964999999993     45.686850000000000
H      45.954300000000003     51.096505000000001     48.750350000000005
H      45.477400000000003     50.254885000000009     46.309249999999999
