5

C      48.039800000000000     48.002949999999991     47.944649999999989
H      48.754300000000001     48.780150000000006     47.681650000000005
H      47.319299999999998     48.385750000000002     47.139449999999997
H      48.635699999999986     47.219849999999994     48.497850000000000
H      47.245699999999999     48.335549999999998     48.860550000000003
