22

C      49.461197999999989     50.289714999999987     48.107299999999995
C      50.180998000000002     49.146115000000002     47.093600000000002
C      49.299498000000000     49.312815000000001     49.393999999999998
C      45.668897999999999     45.274674999999995     48.797000000000004
C      48.841098000000002     47.970115000000000     48.753899999999994
C      49.180897999999999     47.858415000000001     47.371000000000002
C      47.649298000000002     47.200114999999997     49.249199999999995
C      48.849897999999996     46.626415000000001     46.750700000000002
C      47.017398000000000     46.192214999999997     48.310399999999994
C      47.824497999999991     45.741714999999999     47.340200000000003
H      48.491798000000003     50.469715000000001     47.646099999999997
H      50.218797999999992     49.387414999999997     50.088400000000000
H      50.527097999999995     49.689414999999997     46.204699999999995
H      51.204202000000009     48.966014999999999     47.449099999999994
H      49.718997999999999     51.328015000000001     48.203099999999999
H      48.599297999999990     49.414714999999994     50.253300000000003
H      44.795797999999991     45.788914999999996     49.221899999999998
H      46.117698000000004     44.788154999999996     49.533999999999999
H      47.320197999999991     48.122014999999998     49.929300000000005
H      49.104197999999997     46.713715000000001     45.746699999999997
H      45.171797999999995     44.671984999999999     47.840499999999999
H      47.550697999999997     44.819004999999997     46.882100000000001
