23

C      46.796734999999991     50.779049999999998     46.903714999999991
C      47.546184999999994     50.654150000000001     45.499664999999993
C      46.756184999999995     49.650549999999996     48.214855000000000
C      49.875774999999990     45.047449999999998     50.949444999999997
C      47.168534999999999     48.231849999999994     47.817595000000011
C      47.876664999999988     47.227249999999998     48.671364999999994
C      46.315384999999999     47.633049999999997     46.789715000000001
C      49.039834999999997     46.959850000000003     49.573944999999995
C      49.028914999999998     45.457149999999999     49.904745000000005
C      46.646714999999993     46.840249999999997     47.911025000000009
H      48.204174999999999     49.414050000000003     45.558835000000002
H      45.813204999999996     50.546250000000001     46.611834999999999
H      46.699185000000000     52.028949999999995     46.955124999999995
H      48.298175000000001     51.477450000000005     45.674684999999997
H      47.683114999999994     50.211849999999998     44.608855000000005
H      47.359094999999996     49.907349999999994     49.018945000000002
H      45.785764999999998     49.429050000000004     48.703545000000005
H      49.969134999999994     43.971050000000005     51.391144999999995
H      50.792865000000006     45.652649999999994     51.245744999999999
H      45.207134999999994     47.712050000000005     46.765905000000004
H      50.083894999999998     47.400949999999995     49.650544999999994
H      48.132114999999999     44.956750000000000     49.438145000000006
H      46.657034999999993     45.734849999999994     47.894595000000010
