135

C      49.822550000000000     52.193350000000009     52.310949999999991
C      50.591350000000006     52.121550000000013     53.493650000000002
C      47.961349999999996     55.771550000000005     54.938550000000006
C      48.536550000000005     52.988650000000007     52.293549999999996
C      49.801650000000009     53.265250000000009     54.277649999999994
C      47.752049999999997     54.981550000000013     53.752449999999996
C      49.028149999999997     55.199350000000010     55.713449999999995
C      48.765250000000009     53.940150000000003     53.466049999999996
C      49.892650000000003     53.999950000000013     55.510649999999998
C      49.983750000000001     51.449950000000001     50.971850000000003
C      51.281549999999989     50.558650000000000     51.365750000000006
C      52.110149999999997     50.496650000000002     52.479150000000004
C      51.828849999999996     51.329950000000011     53.652049999999988
C      49.267650000000003     51.392350000000008     49.730450000000005
C      49.826549999999990     50.496550000000013     48.430250000000001
C      51.146050000000002     49.772350000000003     48.533450000000002
C      51.501750000000001     49.798550000000006     50.129649999999998
C      47.950450000000004     53.262950000000004     50.943749999999994
C      54.090449999999997     49.625350000000012     53.766349999999989
C      53.776449999999997     50.518350000000012     54.786450000000002
C      50.808250000000001     53.026850000000010     56.220950000000002
C      51.795549999999999     48.642450000000011     49.587149999999994
C      48.720250000000007     50.075950000000006     49.242949999999993
C      43.139350000000007     44.064650000000000     41.401150000000001
C      42.622850000000000     45.455450000000013     41.637950000000004
C      47.323050000000009     45.248050000000006     45.973050000000001
C      46.341250000000002     45.927350000000004     45.126850000000005
C      44.402650000000008     43.743950000000012     42.031049999999993
C      43.334249999999997     46.400350000000003     42.446449999999999
C      45.817050000000009     43.617550000000008     43.899150000000006
C      45.510050000000007     46.607450000000000     44.166650000000004
C      44.883949999999999     44.574550000000002     43.086849999999998
C      44.422449999999998     45.984350000000006     43.415149999999997
C      42.306150000000002     43.413450000000012     40.435850000000002
C      40.965050000000005     43.528050000000007     39.905749999999998
C      40.445350000000005     44.892350000000008     39.968950000000007
C      41.443049999999999     45.816350000000000     40.717349999999996
C      48.207350000000005     44.926650000000009     47.213650000000001
C      49.754450000000006     44.832350000000005     47.457250000000002
C      47.746250000000003     45.811950000000010     48.303950000000000
C      46.360150000000004     44.583250000000007     45.114850000000004
C      40.717449999999999     47.024550000000005     40.639250000000004
C      49.956950000000006     51.886950000000013     44.589050000000000
C      51.061149999999998     47.241849999999999     46.597849999999994
C      49.556950000000001     47.149150000000006     46.990549999999999
C      53.537350000000004     43.051950000000005     48.594549999999998
C      52.520550000000000     42.166250000000005     48.152349999999998
C      53.487549999999999     47.198450000000008     47.685550000000006
C      49.002250000000004     46.017250000000004     47.605050000000006
C      53.213450000000002     44.490550000000013     48.583650000000006
C      51.372349999999997     42.877549999999999     47.650250000000000
C      52.205550000000002     45.267250000000004     48.031549999999996
C      51.181649999999998     44.309250000000006     47.573049999999995
C      51.661150000000006     48.574050000000000     45.939449999999994
C      50.561249999999994     49.423950000000005     45.552450000000007
C      49.105249999999998     49.169450000000012     45.694950000000006
C      48.549050000000008     48.053450000000012     46.535449999999997
C      54.857650000000007     42.614150000000009     49.294550000000001
C      55.176949999999998     41.252050000000011     49.293949999999995
C      54.239850000000004     40.331150000000008     48.669349999999994
C      52.925549999999994     40.687550000000002     48.214349999999996
C      53.112150000000000     48.801750000000013     45.875050000000002
C      53.452349999999996     50.202050000000000     45.423249999999996
C      52.383649999999996     50.969650000000001     44.877350000000007
C      50.992050000000006     50.740350000000007     45.104050000000001
C      52.008649999999996     46.717350000000010     47.623649999999998
C      54.013449999999999     48.140450000000001     46.973450000000000
C      42.276750000000007     47.444550000000007     51.612750000000005
C      44.910049999999998     48.219950000000011     50.550449999999998
C      46.872749999999996     49.317250000000001     51.859949999999998
C      45.379149999999996     49.283550000000005     51.507850000000005
C      44.274450000000002     50.216350000000006     51.860450000000000
C      43.284750000000003     48.448450000000008     50.611249999999998
C      46.110150000000004     48.651850000000010     52.909749999999988
C      43.188649999999996     49.922850000000011     51.036850000000001
C      47.398949999999999     48.278450000000007     50.694550000000007
C      48.819150000000008     48.658650000000009     50.020849999999996
H      50.217149999999997     52.658150000000006     43.842550000000003
H      45.208650000000006     47.262750000000011     50.586449999999999
H      47.425750000000008     52.980550000000008     48.817850000000007
H      47.104950000000002     56.606150000000000     55.504649999999998
H      46.859850000000009     54.981450000000009     53.112150000000000
H      49.004649999999998     55.867750000000001     56.705250000000007
H      51.913549999999994     50.190250000000006     47.970349999999996
H      47.452849999999998     54.114950000000007     51.017049999999998
H      54.818849999999998     49.040450000000007     53.849350000000001
H      54.355249999999998     50.369250000000008     55.478049999999996
H      52.911749999999998     52.189550000000011     55.611450000000005
H      53.619450000000001     48.857950000000002     51.895849999999996
H      47.685249999999996     50.145250000000004     48.589749999999995
H      49.780050000000003     51.042550000000006     47.382649999999998
H      43.002949999999998     48.411850000000001     49.537049999999994
H      44.759050000000002     42.923550000000006     42.110050000000001
H      45.529849999999996     42.565250000000006     43.729650000000007
H      45.899349999999998     47.588750000000005     43.720050000000001
H      42.436050000000009     42.415649999999999     40.026849999999996
H      40.450149999999994     42.867850000000004     39.167749999999998
H      39.791850000000004     45.308850000000007     39.216650000000001
H      46.923150000000007     46.284850000000006     48.918450000000007
H      46.878050000000002     43.392450000000011     43.701650000000001
H      48.973450000000000     51.445150000000012     44.263850000000005
H      49.566249999999997     52.206950000000006     45.656350000000003
H      53.830650000000006     45.106150000000000     49.235150000000004
H      50.756050000000002     41.951650000000001     47.296650000000000
H      48.395550000000000     49.905350000000013     45.263149999999996
H      47.563550000000006     47.906250000000000     46.882350000000002
H      55.499350000000000     43.184750000000008     49.800150000000002
H      56.208149999999996     40.964650000000006     49.743549999999999
H      54.907449999999997     39.393850000000000     48.579350000000005
H      52.234150000000000     39.842950000000002     47.692750000000004
H      54.597149999999999     50.561550000000011     45.221050000000005
H      52.627949999999998     52.130350000000007     44.419250000000005
H      50.730550000000008     46.347650000000002     45.662850000000006
H      54.444249999999997     46.697150000000008     48.162750000000003
H      55.011149999999994     48.557650000000010     47.298850000000002
H      45.631650000000008     48.620450000000005     49.731449999999995
H      47.431849999999997     50.432650000000010     52.078950000000006
H      44.323350000000005     50.955350000000010     52.659349999999989
H      46.337550000000007     47.438050000000004     52.889949999999999
H      46.105150000000009     49.208850000000012     53.784149999999997
H      42.092650000000006     48.359950000000012     52.360450000000000
H      42.314949999999996     50.088850000000008     51.571150000000003
H      43.212350000000001     50.398949999999999     49.949349999999995
H      42.876550000000009     47.329850000000008     42.815349999999995
H      49.806849999999997     48.847050000000010     50.608149999999995
H      47.199950000000001     47.219450000000009     50.926450000000003
H      49.235150000000004     47.725950000000012     49.445250000000001
H      46.943550000000002     48.610750000000010     49.705449999999999
N      48.048450000000003     52.691750000000013     49.643550000000005
N      53.300649999999997     49.613849999999999     52.600650000000002
N      52.709949999999999     51.505150000000000     54.805750000000003
O      51.310749999999999     52.245750000000001     56.832250000000002
O      51.632149999999989     47.423650000000009     49.167150000000007
O      39.978050000000003     47.676349999999999     40.094849999999994
O      41.918450000000007     46.349850000000004     51.366749999999996
