22

C      45.919355499999995     47.989514999999997     49.822549999999993
C      46.089735500000003     49.209764999999990     48.791649999999997
C      46.869855499999986     46.552485000000004     49.382950000000001
C      47.712975499999999     48.749684999999999     48.600149999999999
C      47.883305499999992     47.237065000000001     48.562649999999998
C      49.288465500000001     46.952905000000001     48.806750000000001
C      47.496165499999989     47.776754999999994     47.207149999999999
C      50.275115499999998     47.762484999999998     48.255049999999997
C      48.651315499999995     48.139454999999998     46.250049999999995
C      49.913095499999997     48.179274999999990     46.900349999999996
H      45.945995499999995     48.034544999999994     50.705249999999999
H      44.716184499999997     47.806635000000000     49.759549999999997
H      45.633375500000000     50.075164999999998     49.110849999999999
H      45.772415499999994     48.895064999999988     47.730049999999999
H      46.218715500000002     45.924835000000002     48.820049999999995
H      47.453625500000001     45.957894999999994     50.191549999999999
H      49.542875499999994     46.384214999999998     49.865950000000005
H      47.963575500000005     49.864165000000000     48.279350000000001
H      46.555735499999997     47.434094999999999     46.715949999999999
H      51.283815500000003     47.810145000000006     48.618649999999995
H      48.615165500000003     48.130314999999996     45.294750000000001
H      50.545915499999992     48.593135000000004     46.225049999999996
