47

C      46.826349999999984     47.605149999999995     47.695899999999995
C      46.529349999999994     47.685950000000005     46.166499999999999
C      52.524239999999992     50.551349999999999     44.754899999999999
C      48.204349999999991     47.695650000000001     48.028500000000001
C      47.427949999999996     47.637749999999997     45.106699999999996
C      51.961463999999999     50.680650000000000     46.029200000000003
C      50.011049999999997     49.261350000000007     47.317700000000002
C      50.048249999999996     47.915450000000007     44.440300000000001
C      49.102049999999991     48.273650000000004     46.863900000000001
C      48.871849999999995     47.916849999999997     45.376300000000001
C      50.973349999999996     49.532150000000001     46.257200000000005
C      51.030649999999994     48.728149999999999     44.941200000000002
C      45.849249999999998     47.044849999999997     48.622300000000003
C      44.510949999999994     46.813749999999999     48.056500000000007
C      44.282150000000001     47.140450000000001     46.709600000000002
C      45.212849999999989     47.365049999999997     45.641100000000002
C      46.431249999999991     46.535550000000001     49.961599999999997
C      45.644049999999993     45.522750000000002     50.475000000000001
C      44.302349999999990     45.140150000000006     50.185499999999998
C      43.808549999999997     45.771050000000002     48.993000000000002
C      47.797449999999998     47.181650000000005     50.292000000000002
C      48.872249999999994     47.413550000000001     49.337899999999998
C      50.289949999999990     48.025750000000002     49.443400000000004
C      50.573949999999996     49.371849999999995     48.847400000000000
C      46.129049999999992     45.127650000000003     51.846600000000002
C      51.211549999999988     46.870149999999995     48.848400000000005
C      50.513449999999992     50.769149999999996     49.566700000000004
H      53.198950000000011     51.121449999999996     44.188400000000001
H      52.341307000000000     51.348150000000004     46.968200000000003
H      52.082937999999999     49.438649999999996     43.097299999999997
H      49.845549999999989     47.282849999999996     43.527499999999996
H      44.859049999999996     47.243750000000006     44.741300000000003
H      43.780649999999994     44.435050000000004     50.733499999999999
H      42.801049999999989     45.624250000000004     48.511800000000001
H      47.937550000000002     47.475250000000003     51.323399999999999
H      50.536549999999991     48.083149999999989     50.548399999999994
H      51.643912999999998     49.612749999999991     48.458899999999993
H      51.767448999999999     46.273250000000004     49.472199999999994
H      52.197470000000010     47.349750000000000     48.163100000000007
H      50.591249999999988     46.362049999999996     48.184500000000000
H      50.709449999999990     50.591549999999998     50.588900000000002
H      51.200249999999997     51.564949999999996     49.315000000000005
H      49.477049999999991     51.083650000000006     49.198000000000000
N      51.915203000000005     49.499849999999995     44.141399999999997
O      46.423149999999993     44.891249999999999     52.902700000000003
O      43.214050000000000     46.775850000000005     46.223500000000001
O      47.125050000000002     47.233050000000006     43.992100000000001
