6

C      48.407749999999993     48.436499999999995     48.381449999999994
C      47.525750000000002     47.659599999999998     47.591250000000002
H      48.888149999999996     48.333500000000001     49.381349999999998
H      48.887749999999997     49.256299999999996     47.851950000000002
H      47.169849999999997     47.892600000000002     46.618650000000002
H      47.111850000000004     46.743700000000004     47.630549999999999
