22

C      47.336349999999996     46.570599999999985     46.578504999999993
C      50.485549999999996     47.722300000000004     49.136305000000007
C      48.251650000000005     47.889099999999999     46.765105000000005
C      49.991950000000010     48.850999999999999     48.397205000000000
C      48.545550000000006     48.530999999999992     48.054204999999996
C      48.986450000000012     47.466300000000004     49.263204999999999
C      47.412349999999996     49.392899999999997     48.317504999999997
C      47.658250000000002     47.039000000000001     49.613605000000007
C      46.273250000000004     49.111300000000000     49.130404999999996
C      46.504250000000006     47.722700000000003     49.694204999999997
H      47.439050000000002     45.868499999999997     47.409604999999999
H      47.441650000000003     46.206599999999995     45.638294999999999
H      50.894550000000002     48.071100000000001     50.130804999999995
H      47.768850000000008     48.851100000000002     46.414505000000005
H      49.081650000000003     47.471499999999992     46.182405000000003
H      50.902849999999994     46.951800000000006     48.403105000000011
H      50.491250000000001     49.526100000000000     47.676505000000006
H      46.926950000000005     50.131500000000003     47.477604999999997
H      47.619350000000004     46.184299999999993     50.361705000000001
H      45.097150000000006     49.391400000000004     49.270605000000003
H      45.639650000000003     47.449799999999996     50.153705000000002
H      46.298250000000003     46.856800000000007     46.549504999999996
