44

C      46.973849999999999     47.683150000000005     48.412799999999990
C      47.702050000000007     46.551450000000003     47.863100000000003
C      50.393750000000004     46.239550000000008     50.512400000000014
C      50.668349999999997     46.602450000000005     51.898000000000010
C      49.140949999999997     48.295250000000010     50.851100000000002
C      48.033049999999996     46.878750000000011     49.116500000000002
C      51.241650000000000     44.791450000000012     48.510300000000015
C      50.034050000000001     47.870650000000012     52.046199999999999
C      49.248449999999998     47.027650000000008     49.975300000000004
C      49.996550000000006     49.818150000000003     50.670100000000005
C      45.828049999999998     47.958350000000010     47.514600000000002
C      45.728050000000003     47.098950000000002     46.167400000000001
C      46.584350000000008     46.157850000000010     45.619200000000006
C      47.479149999999997     45.693850000000012     46.760400000000004
C      51.143949999999997     45.113849999999999     49.971600000000009
C      52.349550000000001     44.789950000000005     50.818700000000007
C      52.375949999999996     44.784550000000010     52.221100000000007
C      47.774350000000005     48.639850000000010     51.385800000000003
C      44.911449999999995     47.627850000000009     43.837999999999994
C      44.508550000000007     47.280150000000006     45.264099999999999
C      43.828350000000007     47.660750000000007     42.986699999999999
C      45.408750000000005     49.292749999999998     47.265400000000000
C      45.234649999999995     50.737450000000010     47.925200000000004
H      50.103550000000006     48.421250000000001     53.048800000000014
H      44.138150000000003     46.266550000000009     45.120199999999997
H      46.615249999999996     45.298650000000009     44.899400000000000
H      47.696950000000008     44.608950000000007     46.819900000000004
H      53.284849999999999     44.589050000000000     50.335400000000007
H      53.012750000000004     44.058250000000001     52.735600000000005
H      47.299150000000004     48.250550000000004     52.269800000000004
H      45.885449999999999     47.537550000000010     43.513800000000003
H      43.732850000000006     47.994450000000001     45.609600000000000
H      47.468350000000008     49.693650000000005     51.438000000000002
H      42.715150000000001     47.674250000000001     43.236500000000007
H      43.822449999999996     47.457450000000009     41.955500000000001
H      47.172950000000007     47.989650000000012     50.875800000000012
H      45.189450000000001     49.692050000000009     46.184100000000001
H      44.197150000000001     50.656150000000011     48.403199999999998
H      45.719349999999999     50.521349999999998     48.989999999999995
H      45.489049999999999     51.941749999999999     47.981899999999996
H      51.639950000000006     45.968150000000009     54.044499999999999
N      51.749050000000004     45.840050000000005     52.874100000000013
O      50.609249999999996     50.761650000000003     50.823000000000008
O      50.488050000000008     44.970849999999999     47.701200000000000
