22

C      47.917099999999991     45.028369999999988     48.274699999999996
C      47.062800000000010     45.945349999999991     49.347599999999993
C      49.221200000000010     45.785750000000007     47.741400000000006
C      46.784100000000009     51.103650000000002     49.150100000000002
C      48.566400000000002     47.240449999999996     47.734800000000000
C      47.758700000000005     47.324950000000001     48.881300000000003
C      48.473300000000009     48.445849999999993     46.682499999999997
C      47.184100000000001     48.497249999999994     49.223199999999999
C      47.912700000000001     49.634550000000004     47.111299999999993
C      47.366600000000005     49.621150000000000     48.536899999999996
H      47.409700000000001     44.698090000000001     47.337899999999998
H      48.187200000000004     44.086550000000003     48.749400000000001
H      46.038800000000009     45.936749999999996     49.671699999999994
H      47.677000000000007     45.799450000000000     50.233200000000004
H      49.500700000000009     45.827649999999998     46.732099999999996
H      50.193100000000001     45.481579999999994     48.217199999999998
H      46.692000000000007     51.364149999999995     50.314900000000002
H      45.806899999999999     51.174450000000007     48.774800000000006
H      48.613000000000014     48.362650000000002     45.685099999999998
H      46.619100000000003     48.952050000000000     50.079000000000001
H      47.747900000000001     50.501750000000001     46.386699999999998
H      47.395200000000003     51.913449999999997     48.670099999999998
