21

C      45.800599999999996     47.615549999999992     50.595799999999990
C      47.033699999999996     48.289349999999999     50.504899999999992
C      48.627600000000001     45.767550000000000     48.320999999999998
C      48.344899999999996     47.468350000000001     50.118200000000002
C      49.333799999999997     48.301349999999999     47.727599999999995
C      48.609499999999997     47.120449999999998     48.523099999999999
C      49.742699999999999     48.081750000000000     46.372100000000003
C      49.439700000000002     49.702550000000002     48.125199999999992
C      50.510199999999998     49.260750000000002     45.948399999999992
C      50.449799999999996     50.034549999999996     47.126700000000000
H      45.799599999999998     46.496949999999998     50.412999999999997
H      45.103999999999999     48.245249999999999     50.957700000000003
H      47.423900000000003     49.309550000000002     50.264600000000002
H      48.703500000000005     46.594749999999998     50.844799999999992
H      49.088399999999993     45.438850000000002     47.375000000000000
H      47.855900000000005     45.086050000000000     48.754700000000000
H      49.055700000000002     48.184950000000001     50.331800000000001
H      49.544100000000000     47.121949999999998     45.876400000000004
H      49.162899999999993     50.043049999999994     49.153099999999995
H      50.709199999999996     49.529249999999990     45.042299999999997
H      50.896000000000001     50.913950000000000     47.209999999999994
