55

C      47.692814999999982     46.224399999999989     49.200649999999996
C      47.594264999999979     44.739099999999986     49.037449999999993
C      44.455224999999984     47.089999999999996     45.261150000000001
C      44.295524999999998     45.506499999999996     45.425049999999999
C      46.880815999999982     47.040499999999987     48.384749999999997
C      46.665616999999983     44.251799999999996     48.236549999999994
C      45.345024999999978     47.417899999999996     46.311650000000000
C      44.851224999999999     44.638299999999994     46.371150000000000
C      46.004824999999968     46.553899999999992     47.203649999999996
C      45.914224999999988     45.165699999999994     47.305449999999993
C      48.200984999999989     46.871599999999994     50.534149999999997
C      49.214274999999972     45.983499999999999     50.898849999999996
C      49.198704999999975     44.549699999999994     50.764749999999992
C      48.386884999999978     43.744399999999992     49.844049999999996
C      44.017324999999985     47.811999999999991     44.066149999999993
C      43.243224999999995     46.925699999999999     43.252449999999996
C      43.089325000000002     45.497299999999989     43.367149999999995
C      43.654124999999993     44.775499999999987     44.387249999999995
C      46.692641999999992     50.287499999999987     51.502949999999998
C      46.685397999999992     50.334799999999994     50.059949999999986
C      46.480166999999980     48.930899999999987     50.668649999999985
C      45.768225000000001     51.031299999999995     52.485249999999994
C      47.733814999999993     48.020099999999992     51.165749999999989
C      49.317404999999980     50.650599999999990     49.349549999999994
C      48.784004999999979     52.110699999999987     49.822249999999983
C      50.013574999999989     51.477999999999987     50.269750000000002
C      47.736224999999976     51.137499999999996     49.184349999999995
C      50.401194999999973     49.993299999999998     50.067749999999990
C      50.883254999999991     48.697399999999995     50.461550000000003
C      52.174464999999984     48.234199999999994     51.046650000000000
C      52.818924999999979     46.978899999999989     50.886949999999985
H      46.576214999999991     43.266399999999997     47.950649999999996
H      45.953924999999984     48.467899999999993     46.408749999999998
H      44.548924999999983     43.584999999999987     46.165849999999992
H      49.745624999999990     46.601599999999998     51.767849999999996
H      49.932354999999987     44.090499999999999     51.339349999999996
H      48.498374999999982     42.754500000000000     49.601149999999990
H      44.253125000000011     48.863599999999998     43.733949999999993
H      42.423625000000015     47.229499999999994     42.611649999999997
H      42.547024999999991     44.942499999999988     42.632849999999991
H      43.576324999999997     43.813899999999997     44.749749999999992
H      47.626424999999983     50.079400000000000     52.104649999999992
H      46.980786999999992     48.077499999999993     48.379249999999999
H      45.542225000000002     50.447199999999988     49.351849999999999
H      46.125225000000000     51.456099999999999     53.388350000000003
H      44.840824999999995     50.434299999999986     52.992049999999992
H      44.860824999999977     51.705199999999998     52.167749999999998
H      45.429624999999973     48.687099999999994     50.593949999999992
H      48.312914999999990     48.224199999999989     52.029349999999994
H      48.537534999999991     53.245500000000000     49.656849999999991
H      47.341024999999988     51.648699999999998     48.273749999999993
H      50.623044999999991     47.782299999999999     49.808249999999987
H      52.844194999999985     48.813199999999988     51.854849999999999
H      52.343554999999981     46.266399999999997     50.156750000000002
H      53.576374999999985     46.792099999999998     51.626649999999984
