6

C      48.089699999999993     48.568500000000000     48.219537999999993
C      48.048999999999999     47.310800000000008     47.791437999999999
H      48.858499999999999     49.317399999999999     47.932637999999997
H      47.291700000000006     48.988700000000001     48.785662000000002
H      47.139800000000001     46.682600000000001     48.071538000000004
H      48.860199999999999     47.062400000000004     47.214337999999998
