6

C      47.696849999999998     47.555599999999991     47.572199999999995
C      48.242450000000005     48.526700000000005     48.372899999999994
H      47.887050000000002     47.392099999999999     46.524200000000000
H      46.963049999999996     46.740700000000004     48.043399999999998
H      49.036950000000004     49.259299999999996     48.123600000000003
H      47.968049999999991     48.601299999999995     49.475800000000000
