20

C      48.856749999999991     48.668849999999992     46.695949999999996
C      49.908850000000008     48.621250000000003     47.828719999999997
C      47.534550000000003     47.192149999999998     45.191569999999999
C      49.566449999999996     48.409549999999996     49.213659999999997
C      47.525650000000006     48.036950000000004     46.569350000000000
C      48.131350000000005     48.242350000000002     49.664659999999991
C      46.203550000000000     47.717249999999993     47.143750000000004
C      47.182549999999999     47.972849999999994     50.622260000000004
C      45.837650000000004     47.997749999999996     48.575759999999995
C      46.701650000000008     48.718549999999993     49.457760000000000
H      48.574750000000002     47.119950000000003     44.621540000000003
H      50.593049999999998     48.847849999999994     49.498460000000001
H      50.965049999999998     48.764849999999996     47.261279999999999
H      47.162550000000003     46.127250000000004     45.243220000000001
H      46.988050000000008     47.847250000000003     44.654409999999999
H      49.673650000000002     48.821650000000005     45.763520000000000
H      45.436749999999996     47.176550000000006     46.566650000000003
H      46.551350000000006     47.560850000000002     51.378459999999997
H      45.034950000000002     47.255349999999993     48.907460000000000
H      46.560049999999997     49.872749999999996     49.094859999999997
