21

C      47.844300000000004     49.900999999999989     47.098799999999997
C      49.634399999999999     49.759000000000000     47.362800000000000
C      46.924900000000008     48.746400000000001     46.755299999999998
C      49.686099999999996     48.425500000000000     46.807600000000001
C      47.395899999999997     47.399099999999997     47.366700000000002
C      48.868099999999998     47.316099999999999     47.526699999999998
C      46.469600000000000     46.712399999999995     48.291600000000010
C      49.172799999999995     46.363599999999998     48.527099999999997
C      46.774600000000007     45.774200000000000     49.300400000000003
C      48.289500000000004     45.673999999999999     49.456099999999999
H      47.400599999999997     50.874200000000002     46.637400000000007
H      47.231200000000001     50.129199999999997     48.065300000000001
H      49.809399999999997     49.996600000000001     48.392500000000005
H      49.811099999999996     50.539400000000001     46.531100000000002
H      46.085200000000000     49.146200000000000     47.112800000000000
H      49.234499999999997     48.594999999999999     45.842300000000002
H      50.628699999999995     48.156299999999995     46.354900000000008
H      45.371300000000005     46.817699999999995     48.109300000000012
H      50.145700000000005     46.179400000000001     48.981900000000003
H      46.148899999999998     45.204999999999998     50.034200000000006
H      48.950199999999995     45.125799999999998     50.157699999999998
