22

C      49.855049999999991     49.344099999999990     47.666221799999988
C      50.457450000000009     47.701999999999998     47.920356999999989
C      48.631150000000005     49.222700000000003     46.805164999999995
C      49.525250000000000     46.927400000000006     48.901084999999988
C      47.598050000000001     48.331500000000005     47.486865000000009
C      47.950550000000007     47.293700000000001     48.534041999999992
C      46.220849999999999     48.704800000000006     47.584164999999999
C      47.292650000000009     46.391999999999996     49.373734999999989
C      45.494150000000005     47.973799999999997     48.559683999999997
C      45.922849999999997     46.949500000000000     49.522844999999997
H      49.646050000000002     49.322599999999994     48.755574999999993
H      50.780750000000012     49.935800000000000     47.351665000000018
H      51.517650000000003     47.842799999999997     48.174616999999998
H      50.614850000000004     47.286100000000005     46.854365000000008
H      48.386049999999997     50.312899999999999     46.514764999999990
H      49.124350000000007     48.957800000000006     45.744565000000001
H      49.789550000000006     45.687100000000001     48.960604999999994
H      49.988050000000001     47.220799999999997     50.088204999999995
H      45.522950000000009     49.400000000000006     46.862865000000014
H      47.789250000000010     45.745400000000004     50.255434999999999
H      44.482349999999997     48.012199999999993     48.327079999999995
H      45.307350000000000     46.073800000000006     49.857404999999993
