5

C      47.604149999999990     47.873191999999996     48.207699999999996
H      47.481549999999999     48.961224999999999     48.488100000000003
H      47.262749999999997     47.038775000000001     48.900999999999996
H      47.163449999999997     47.419017000000004     47.099000000000004
H      48.836550000000003     47.676250000000003     48.495900000000006
