6

C      48.655299999999997     47.808749999999996     47.672099999999986
C      47.354299999999995     48.185950000000005     48.215600000000002
H      49.526399999999995     48.275850000000005     48.386299999999999
H      48.867199999999997     46.907849999999996     47.130699999999997
H      47.101200000000006     49.092150000000004     48.869300000000003
H      46.473600000000005     47.703950000000006     47.619899999999994
