16

C      47.730714999999989     46.705749999999995     49.430399999999999
C      50.143035000000005     47.781450000000007     48.236000000000004
C      47.634914999999999     47.695350000000005     48.744100000000003
C      48.732002000000001     48.252750000000006     47.958700000000007
C      46.671414999999989     48.696549999999995     49.008300000000006
C      48.304515000000002     49.031450000000014     46.760999999999996
C      46.177315000000000     49.595649999999999     47.940600000000003
C      46.857414999999996     49.376049999999999     46.658900000000003
H      47.844414999999991     46.733350000000009     50.406800000000004
H      47.825415000000000     45.891950000000001     48.769300000000001
H      50.178725000000000     46.671750000000003     48.273700000000005
H      50.697685000000000     48.089450000000006     47.361599999999996
H      46.087015000000001     48.622250000000001     49.815399999999997
H      48.345314999999992     48.854850000000006     45.593199999999996
H      45.302315000000000     50.108049999999999     48.382500000000007
H      46.251015000000002     49.971350000000008     45.894300000000001
