22

C      48.241450000000000     45.396799999999999     48.862549999999999
C      48.154750000000000     45.453900000000004     47.443449999999999
C      49.078550000000000     46.735500000000002     49.212649999999996
C      47.164149999999999     46.428700000000006     46.740849999999995
C      48.255150000000008     48.015399999999985     48.581949999999992
C      47.231450000000002     47.846900000000005     47.581450000000004
C      48.812050000000006     49.153199999999998     49.129750000000001
C      46.636150000000008     49.189599999999999     47.332650000000001
C      48.209250000000004     50.441999999999993     48.875150000000005
C      47.198050000000002     50.397499999999994     47.919950000000000
H      48.809850000000004     44.608699999999999     49.182649999999995
H      47.429050000000011     45.780400000000000     49.386749999999992
H      48.230550000000001     44.585800000000006     46.665549999999996
H      49.147750000000009     45.449599999999990     47.098950000000002
H      48.781950000000002     46.762400000000000     50.309150000000002
H      50.093950000000000     46.568399999999997     49.245949999999993
H      47.328150000000001     46.766599999999997     45.690849999999998
H      46.257849999999998     45.894300000000001     46.798450000000003
H      49.652850000000008     49.041899999999998     49.848249999999993
H      45.906050000000000     49.605000000000004     46.604950000000002
H      48.553950000000007     51.414199999999994     49.252449999999996
H      46.673750000000005     51.403499999999994     47.856849999999994
