42

C      49.226949999999995     48.045449999999995     48.775699999999993
C      49.254050000000007     47.613849999999999     50.119300000000010
C      45.524150000000006     49.142849999999996     50.340000000000003
C      48.123950000000008     48.282349999999994     47.789800000000000
C      48.104150000000004     47.765349999999998     51.123699999999999
C      45.945550000000004     48.119550000000004     49.581100000000006
C      44.471050000000005     49.906549999999996     50.771500000000003
C      46.677250000000001     48.642349999999993     48.221800000000002
C      46.869550000000004     48.345749999999995     50.707900000000009
C      50.496250000000003     47.619450000000001     48.020000000000010
C      51.314350000000005     46.722449999999995     48.889499999999998
C      51.300250000000005     46.264449999999997     50.332900000000009
C      50.172250000000005     46.777349999999998     50.979900000000001
C      50.535849999999996     47.510549999999995     46.537500000000009
C      52.156950000000002     46.262749999999997     45.038200000000003
C      51.690550000000002     46.533749999999998     46.488100000000003
C      51.942450000000001     45.815849999999998     47.715200000000010
C      48.186050000000002     48.475849999999994     46.308000000000007
C      49.488950000000003     47.793149999999997     45.735799999999998
C      43.844050000000003     50.964749999999995     49.887700000000009
C      50.188750000000013     48.703350000000000     44.669700000000006
C      47.195350000000005     47.318749999999994     47.332500000000010
C      45.481650000000002     46.654650000000004     49.584000000000003
H      48.303850000000004     47.898349999999994     52.201400000000007
H      46.360450000000007     49.605249999999998     47.825100000000006
H      44.576450000000001     50.727350000000001     51.637799999999999
H      51.932350000000007     45.655349999999999     50.912599999999998
H      50.265850000000015     46.602350000000001     52.233300000000000
H      53.092849999999999     45.490849999999995     45.368900000000011
H      52.590450000000004     44.983450000000005     47.789000000000001
H      47.624250000000004     49.198750000000004     45.688600000000008
H      49.117350000000002     46.995049999999992     44.882800000000003
H      50.493549999999999     48.314449999999994     43.766700000000000
H      51.067449999999994     49.150149999999996     45.250300000000010
H      49.782350000000001     49.608249999999998     45.062800000000010
H      44.652550000000005     46.495049999999992     50.226500000000001
H      47.614450000000005     46.603650000000002     48.186800000000005
H      46.377750000000006     46.720450000000000     46.889800000000008
H      46.403550000000003     46.071950000000001     50.012100000000004
H      45.030850000000001     46.528549999999996     48.603300000000004
O      42.907150000000001     51.016549999999995     49.216400000000007
O      51.411150000000006     45.873649999999998     44.131900000000002
