6

C      48.350499999999997     47.576499999999996     48.416460000000001
C      47.863300000000002     48.358699999999985     47.509010000000004
H      48.106600000000000     46.431600000000003     48.057469999999995
H      48.730799999999995     47.857399999999998     49.361329999999995
H      47.922000000000004     49.568399999999997     47.387380000000007
H      47.269200000000005     48.009399999999985     46.638670000000005
