50

C      48.223499999999987     48.686699999999995     47.941149999999993
C      49.091900000000003     49.163299999999992     47.000550000000004
C      52.202499999999993     47.646100000000004     50.628049999999995
C      48.706399999999995     47.883400000000002     49.083250000000000
C      50.571300000000001     49.027000000000001     47.468150000000001
C      50.743800000000000     47.361000000000004     51.063850000000002
C      52.258599999999994     48.351900000000001     49.494950000000010
C      50.016500000000001     47.906700000000001     49.872750000000003
C      50.940999999999995     48.369700000000002     48.767050000000005
C      46.741099999999996     48.538899999999998     47.680450000000000
C      46.351800000000004     49.287999999999997     46.460550000000005
C      47.327300000000001     49.787100000000009     45.542750000000005
C      48.690899999999992     49.770200000000003     45.734650000000002
C      45.710699999999996     47.695800000000006     48.359450000000002
C      44.306800000000003     48.185299999999998     48.253750000000004
C      43.926200000000001     48.686500000000002     46.995049999999999
C      44.881099999999996     49.512100000000004     46.141350000000003
C      46.419300000000000     46.826300000000003     49.408550000000005
C      47.730399999999996     46.808300000000003     49.497250000000001
C      46.895099999999992     50.399500000000003     44.143750000000004
C      48.027700000000003     50.713200000000001     43.332350000000005
C      49.453499999999998     50.586700000000000     43.724550000000001
C      49.777099999999997     50.049199999999999     44.909750000000003
C      44.646799999999992     50.353400000000008     44.864850000000004
C      45.529499999999992     50.718000000000004     43.793450000000000
C      51.799600000000005     49.537900000000008     46.566950000000006
C      51.194700000000005     49.420000000000002     45.073150000000005
C      47.000700000000002     45.474299999999999     49.861449999999998
C      50.073599999999992     46.481800000000000     52.001049999999999
C      51.094000000000001     48.092700000000001     44.399150000000006
C      50.866999999999997     45.877200000000002     53.011450000000004
H      53.101700000000001     47.299900000000001     51.360750000000003
H      53.082199999999993     48.779800000000002     49.088050000000003
H      43.240100000000005     48.039500000000004     48.797949999999993
H      42.898299999999999     48.799700000000001     46.700150000000001
H      47.734400000000001     50.720700000000008     42.316150000000000
H      50.139800000000001     50.354500000000002     43.101050000000001
H      43.700600000000001     50.886600000000001     45.126150000000003
H      45.167799999999993     51.176000000000002     42.701150000000005
H      52.446899999999992     48.608699999999999     46.662550000000003
H      52.401599999999995     50.463700000000003     46.521350000000005
H      51.845499999999994     50.034599999999998     44.503050000000002
H      48.961700000000000     46.405000000000001     52.192850000000000
H      46.725000000000001     45.263300000000001     50.902350000000006
H      46.612900000000003     44.823999999999998     49.148850000000003
H      52.025200000000005     47.549999999999997     44.121950000000005
H      50.332599999999992     47.912100000000002     43.609050000000003
H      50.324400000000004     47.250299999999996     44.705950000000001
H      52.133599999999994     45.742300000000000     53.411949999999997
H      50.520599999999995     45.251500000000000     53.683850000000000
