22

C      48.034299999999988     46.860449999999986     49.586749999999995
C      47.470999999999989     45.919950000000000     48.265250000000002
C      49.772599999999997     48.479249999999993     48.480249999999998
C      48.133299999999991     46.969549999999998     46.980750000000000
C      48.324999999999989     48.222750000000005     49.021450000000002
C      48.471399999999988     48.331350000000000     47.490650000000002
C      47.353899999999996     49.261349999999993     49.374650000000003
C      48.002899999999997     49.442549999999997     46.679749999999999
C      46.777699999999996     50.248750000000001     48.525149999999996
C      46.961299999999994     50.342649999999992     47.093750000000000
H      48.950799999999987     46.603650000000002     50.242650000000005
H      47.013700000000000     47.178150000000002     50.179549999999999
H      46.410100000000000     46.004649999999998     48.173349999999999
H      47.737199999999987     44.873850000000004     47.668250000000000
H      50.190399999999997     47.628950000000003     48.702050000000000
H      50.087699999999998     49.547249999999991     48.851149999999997
H      48.941899999999990     46.378850000000000     46.880450000000003
H      47.701499999999996     46.766449999999992     45.954249999999995
H      47.240600000000001     49.503350000000012     50.455850000000005
H      48.053799999999995     49.407849999999996     45.544149999999995
H      45.809600000000003     50.748950000000008     48.903050000000000
H      46.423900000000003     51.126149999999996     46.514049999999997
