24

C      45.897899999999993     46.501849999999997     48.941299999999991
C      48.360900000000001     46.348850000000006     47.792400000000001
C      49.637000000000000     48.187550000000002     46.109399999999994
C      49.567899999999995     50.054249999999996     48.958699999999993
C      49.297599999999989     47.458150000000003     47.519700000000000
C      47.387899999999988     46.939450000000008     49.047499999999999
C      48.546599999999998     47.103450000000009     46.407100000000000
C      47.578199999999995     48.621049999999997     49.004700000000000
C      50.009299999999996     48.180150000000012     48.651100000000000
C      48.996399999999994     48.830950000000001     49.528199999999998
H      45.709099999999992     46.488050000000001     47.919499999999999
H      46.944799999999987     49.595849999999999     48.951799999999992
H      47.345299999999995     46.443150000000003     49.986899999999991
H      45.188699999999997     46.965649999999997     49.711200000000005
H      49.005699999999990     45.433750000000003     47.905000000000001
H      45.869699999999995     45.397250000000000     49.113600000000005
H      50.082499999999996     49.112549999999999     46.262900000000002
H      50.430099999999996     47.701350000000005     45.561999999999998
H      49.191599999999994     50.551850000000002     48.130399999999995
H      50.348599999999990     50.602750000000000     49.489499999999992
H      48.091299999999990     46.853650000000002     45.356600000000000
H      47.824100000000001     48.718050000000005     47.936700000000002
H      50.811300000000003     47.495950000000008     49.210300000000004
H      49.085499999999996     48.786749999999998     50.643400000000000
