35

C      47.503749999999989     47.858649999999997     47.043379999999985
C      48.790149999999997     47.575649999999996     46.255606000000000
C      50.102249999999998     50.484750000000005     50.018889999999999
C      47.443350000000002     49.001450000000006     48.103470000000002
C      49.890749999999997     48.469350000000006     46.690019999999990
C      48.782449999999997     49.707350000000005     50.149199999999993
C      50.667749999999998     50.003649999999993     48.858080000000001
C      48.606949999999998     49.470950000000002     48.640199999999993
C      49.893050000000002     49.122449999999986     48.105239999999995
C      46.513449999999999     46.920450000000002     46.482339999999994
C      46.699050000000000     45.905050000000003     45.431569999999994
C      47.949250000000006     45.681049999999999     44.648810000000012
C      48.885050000000000     46.502250000000004     45.267409999999998
C      45.320050000000002     47.122349999999997     47.204610000000002
C      44.068249999999999     46.470050000000001     46.838470000000001
C      44.052650000000000     45.670749999999998     45.661245999999991
C      45.297750000000001     45.296549999999996     45.149310000000000
C      46.172649999999997     49.612750000000005     48.707630000000009
C      47.997450000000001     49.615849999999995     51.382900000000006
C      52.020949999999999     50.556550000000001     48.201329999999999
H      50.358550000000008     51.294650000000004     50.806470000000004
H      50.851450000000000     48.200050000000005     46.144508000000002
H      48.199350000000003     44.851849999999999     43.973910000000004
H      49.961350000000003     46.483549999999994     44.909910000000025
H      45.368250000000003     48.032650000000004     47.872680000000003
H      43.082450000000001     46.669749999999993     47.450409999999991
H      43.128749999999997     45.224850000000004     45.202710000000025
H      45.415849999999999     44.312150000000003     44.622110000000021
H      46.930850000000000     49.101949999999988     51.643099999999990
H      48.500749999999996     50.282650000000004     52.026089999999996
H      52.408250000000010     49.801349999999999     47.593270000000004
H      51.957250000000002     51.687849999999997     47.932100000000005
H      45.535649999999997     49.573850000000007     49.628990000000002
H      52.917549999999999     50.498249999999999     48.839059999999989
O      45.606250000000003     50.117749999999987     47.764499999999998
