16

C      48.458749999999988     45.777049999999988     50.257199999999997
C      48.355350000000001     47.212950000000006     49.777500000000003
C      48.519349999999989     48.251050000000006     47.568899999999999
C      48.880150000000000     49.688150000000007     47.349299999999999
C      48.465549999999993     46.998450000000005     48.424499999999995
C      48.552250000000001     50.181449999999998     46.029399999999995
C      47.509049999999995     48.097250000000003     46.501999999999995
C      47.783850000000001     49.135350000000003     45.483300000000000
H      48.458050000000000     45.499049999999997     51.334599999999995
H      48.022049999999993     44.869349999999997     49.570200000000000
H      48.358249999999998     48.011550000000000     50.550799999999995
H      49.176349999999999     50.237449999999995     48.124700000000004
H      48.447849999999995     46.057450000000003     47.846299999999999
H      48.698349999999998     51.130650000000003     45.470100000000002
H      46.823650000000001     47.317549999999997     46.299400000000006
H      47.356949999999998     49.252549999999999     44.665400000000005
