22

C      49.046714999999992     47.757399999999990     50.441849999999995
C      47.639114999999997     48.629899999999999     50.390149999999991
C      48.303915000000003     46.536699999999989     49.527149999999992
C      47.246915000000001     49.138900000000000     49.058149999999998
C      48.158715000000001     47.125200000000000     47.984049999999996
C      47.939815000000003     48.491300000000003     47.958550000000002
C      48.812114999999999     46.620799999999996     46.798450000000003
C      48.141215000000003     49.416499999999992     46.833550000000002
C      48.678315000000005     47.213999999999992     45.471350000000001
C      48.601914999999998     48.706699999999991     45.607549999999989
H      49.811515000000000     48.253099999999996     50.036749999999998
H      49.232014999999997     47.552000000000000     51.432749999999999
H      48.003515000000000     49.623699999999992     50.752949999999998
H      46.604445000000005     48.265999999999998     51.101349999999996
H      49.109515000000009     45.863300000000002     48.985549999999989
H      47.325715000000002     46.200899999999997     49.785550000000001
H      47.772015000000003     50.194200000000002     48.830649999999991
H      46.188485000000000     49.248299999999993     48.963049999999996
H      48.709415000000000     45.546100000000003     47.178249999999991
H      47.918915000000005     50.453899999999997     47.070449999999994
H      48.993315000000003     46.676099999999998     44.567250000000001
H      48.936315000000000     49.567399999999999     45.007649999999998
