6

C      47.502649999999988     48.434649999999991     47.944334999999988
C      48.475049999999996     47.579049999999995     48.082594999999998
H      47.295749999999998     49.281450000000007     48.488465000000005
H      46.813649999999996     48.318749999999994     47.162734999999998
H      48.702449999999999     46.718549999999993     47.515484999999998
H      49.186350000000004     47.639349999999993     48.837265000000002
