25

C      45.967299999999994     50.121399999999994     47.826749999999990
C      46.188299999999991     50.930900000000001     46.736450000000005
C      49.244499999999995     47.652999999999999     46.523949999999999
C      49.461499999999994     48.619199999999999     47.698450000000008
C      48.919199999999996     46.336999999999996     46.995850000000004
C      48.490599999999993     49.906399999999998     48.125250000000008
C      47.516100000000002     46.285599999999995     47.864150000000009
C      46.995699999999992     49.307399999999994     48.327550000000016
C      46.535699999999999     46.963500000000003     48.761450000000011
C      46.088599999999992     49.591699999999996     49.374750000000006
C      46.684099999999994     45.415100000000002     48.443350000000009
C      47.033099999999997     48.171799999999998     49.487350000000006
H      50.248200000000004     47.550099999999993     45.936750000000004
H      48.571199999999997     48.104599999999998     45.704549999999998
H      50.384499999999996     49.125499999999995     47.676450000000003
H      49.764699999999998     48.065700000000000     48.685550000000006
H      48.469900000000003     45.733899999999998     46.065950000000001
H      49.785999999999994     45.818099999999994     47.685050000000004
H      48.580199999999998     50.592000000000006     47.306550000000001
H      48.748399999999997     50.339599999999997     49.138750000000002
H      45.615500000000004     47.195100000000004     48.245050000000006
H      45.718299999999992     50.190800000000003     50.295450000000002
H      46.199800000000003     44.681599999999996     48.925950000000014
H      48.043100000000003     47.989100000000001     50.004750000000016
O      46.807499999999997     51.318400000000004     45.888450000000006
