5

C      48.186949999999996     47.782349999999994     48.468049999999991
H      47.125250000000001     47.420249999999996     48.818249999999999
H      48.874749999999999     47.131050000000002     48.864849999999997
H      48.188449999999996     48.868949999999998     48.766349999999996
H      48.363450000000000     47.850449999999995     47.135150000000003
