52

C      48.058349999999990     47.942549999999990     48.018899999999988
C      47.287249999999993     47.156449999999992     49.151300000000006
C      45.771449999999994     44.078450000000004     46.025999999999996
C      47.861349999999995     47.073549999999997     46.768100000000004
C      46.069949999999999     46.402050000000003     48.835300000000004
C      46.893149999999999     44.920249999999996     45.554400000000001
C      45.161849999999994     44.640950000000004     47.117599999999996
C      46.735549999999996     46.164050000000003     46.441800000000001
C      45.712749999999993     45.897149999999996     47.514200000000002
C      48.723449999999993     49.229550000000003     47.983300000000000
C      49.074849999999991     50.046650000000000     50.292000000000002
C      48.344349999999999     48.912649999999999     50.714500000000001
C      47.440049999999992     47.964950000000002     50.309800000000010
C      49.519249999999992     49.400450000000006     46.680199999999999
C      50.107949999999995     50.818349999999995     46.591499999999996
C      49.808549999999990     51.326049999999995     47.929199999999994
C      49.246649999999995     50.369749999999996     48.831299999999999
C      49.535249999999998     48.462750000000000     45.702399999999997
C      48.902749999999997     47.176950000000005     45.575299999999999
C      49.126950000000001     45.699150000000003     45.091300000000004
C      47.921849999999999     44.721549999999993     44.403199999999998
C      44.959249999999997     46.463149999999999     49.882100000000008
C      45.266149999999996     47.119749999999996     51.213200000000001
C      46.969249999999995     47.300749999999994     51.519099999999995
C      48.911549999999998     50.034949999999995     51.815000000000012
C      50.925149999999995     53.429149999999993     45.873199999999997
C      50.905250000000002     51.898150000000001     45.873000000000005
C      45.593349999999994     42.563649999999996     45.454700000000003
C      50.271250000000002     49.140850000000000     44.376400000000004
H      50.258149999999993     52.162049999999994     48.493900000000011
H      44.456849999999996     44.008049999999997     47.581800000000001
H      49.982349999999990     45.742549999999994     44.399200000000008
H      49.881549999999997     45.201149999999998     45.925899999999999
H      47.800149999999995     43.654949999999999     44.180000000000007
H      47.316949999999999     45.022649999999999     43.461200000000005
H      44.141849999999998     46.964449999999999     49.561300000000003
H      44.488849999999992     45.416849999999997     49.892899999999997
H      44.887749999999997     48.152450000000002     51.255000000000010
H      44.868949999999991     46.199749999999995     51.744900000000001
H      46.815449999999991     47.920749999999998     52.431600000000003
H      47.320649999999993     46.199250000000006     51.400999999999996
H      48.191150000000000     50.448350000000005     52.538799999999995
H      49.780650000000001     49.791650000000004     52.472700000000003
H      51.557849999999995     54.213449999999995     46.622600000000006
H      50.755350000000000     53.648550000000000     44.783900000000003
H      51.858150000000002     51.507750000000001     45.629700000000000
H      45.580849999999991     42.284350000000003     44.423299999999998
H      44.481649999999995     42.418250000000000     45.480599999999995
H      46.017249999999997     41.786550000000005     46.156300000000002
H      49.840449999999997     50.212649999999996     44.153999999999996
H      51.253449999999994     49.336249999999993     44.489199999999997
H      50.149149999999999     48.554649999999995     43.474599999999995
