22

C      46.477769999999992     46.951199999999993     49.150749999999988
C      47.333770000000001     45.688400000000001     48.897849999999998
C      46.444470000000003     48.349300000000007     48.639550000000000
C      48.726970000000001     46.084700000000005     48.420150000000000
C      47.653870000000005     48.512700000000009     47.709849999999996
C      48.564969999999995     47.398300000000006     47.508350000000000
C      47.351070000000000     49.534099999999995     46.649249999999995
C      49.755270000000003     47.935500000000005     46.787549999999996
C      48.533470000000001     50.285900000000005     46.189250000000001
C      49.575470000000003     49.300000000000011     46.177849999999999
H      46.709769999999999     46.987100000000012     50.266050000000000
H      45.271030000000003     46.598700000000001     48.852849999999997
H      46.826770000000003     45.231600000000000     48.134450000000001
H      47.472569999999997     44.868200000000002     49.760849999999998
H      45.544890000000002     48.746899999999997     48.469549999999998
H      46.508370000000006     49.358600000000003     49.398249999999997
H      49.406069999999993     46.196000000000005     49.171150000000004
H      49.463370000000005     45.491400000000006     47.652449999999995
H      46.341369999999998     50.093800000000002     46.815349999999995
H      50.728969999999997     47.561800000000005     46.726949999999995
H      48.354669999999999     51.131799999999998     45.733950000000000
H      50.455170000000003     49.580399999999997     45.734749999999998
