5

C      48.188299999999984     48.000749999999996     48.038849999999989
H      47.231299999999990     48.780449999999995     47.750950000000003
H      48.756099999999989     48.666350000000001     48.590450000000004
H      48.211599999999990     47.219550000000005     48.834850000000003
H      48.768700000000010     47.736250000000005     47.165149999999997
