22

C      46.424699999999987     46.613299999999995     49.329999999999991
C      47.819800000000001     45.990100000000005     49.610299999999995
C      46.057100000000005     46.896499999999996     47.836399999999998
C      48.807000000000002     45.884300000000003     48.310699999999997
C      47.461600000000004     47.567599999999992     47.141199999999998
C      48.695499999999996     47.494300000000003     47.808399999999992
C      47.187500000000014     48.855399999999996     46.376700000000000
C      49.781800000000004     48.360700000000001     47.823899999999995
C      48.243600000000001     49.783399999999993     46.156400000000005
C      49.453000000000003     49.485800000000005     46.996300000000005
H      45.521199999999993     46.089999999999996     49.826999999999998
H      46.356499999999997     47.503200000000000     49.865200000000002
H      47.674599999999998     45.146599999999999     50.067700000000002
H      48.663399999999996     46.655499999999996     50.185299999999998
H      45.964799999999997     45.849600000000002     47.392899999999997
H      45.359999999999999     47.624900000000004     47.409700000000001
H      49.625699999999995     45.347599999999993     48.081800000000001
H      48.136200000000002     45.840499999999999     47.446100000000001
H      46.212100000000007     48.899099999999997     45.814700000000002
H      50.640000000000001     47.991499999999995     48.530500000000004
H      47.874099999999999     50.853400000000001     45.921700000000001
H      50.306500000000000     50.299900000000001     46.898700000000005
