63

C      45.506599999999992     49.410049999999991     47.682849999999995
C      51.961700000000000     48.384149999999998     45.231650000000002
C      46.769699999999993     49.240449999999996     46.907550000000001
C      52.914799999999993     47.806649999999998     46.222449999999995
C      45.842700000000001     49.166750000000000     49.095849999999999
C      50.854999999999997     49.231150000000000     45.718850000000003
C      48.159100000000002     48.826549999999997     47.263549999999995
C      53.049199999999992     48.203049999999998     47.667950000000005
C      47.445599999999992     49.178649999999998     50.999350000000007
C      48.842799999999990     49.264949999999999     51.679950000000005
C      50.843899999999998     49.869349999999997     48.511449999999996
C      47.224899999999998     49.325550000000000     49.549949999999995
C      50.939699999999995     49.546449999999993     47.077650000000006
C      49.980699999999992     49.357250000000001     50.758750000000006
C      48.400900000000000     49.261650000000003     48.628650000000007
C      51.978800000000000     49.057350000000000     48.209750000000000
C      49.687999999999995     49.300150000000002     49.271050000000002
C      44.172199999999997     49.473150000000004     47.180049999999994
C      43.848499999999994     49.759349999999998     45.722549999999998
C      45.010100000000001     49.528350000000003     44.939650000000000
C      46.380400000000002     49.161149999999999     45.462850000000003
C      51.558399999999999     47.610150000000004     43.995750000000001
C      52.369499999999995     46.376950000000001     43.759150000000005
C      53.309699999999999     45.948750000000004     44.764949999999999
C      53.474799999999995     46.553349999999995     46.062550000000002
C      46.354799999999990     49.394750000000002     51.927949999999996
C      46.497899999999994     49.188150000000000     53.304950000000005
C      47.743199999999995     49.537549999999996     53.936049999999994
C      48.929499999999997     49.622149999999991     53.058750000000003
C      45.026999999999994     49.399349999999998     51.312449999999998
C      44.540799999999997     49.168149999999997     49.934849999999997
C      42.988399999999992     49.258849999999995     47.889350000000007
C      43.188600000000001     49.161549999999998     49.317049999999995
C      50.023699999999998     50.052750000000003     45.017449999999997
C      50.153399999999998     49.537149999999997     43.504050000000007
C      50.380499999999991     47.881850000000000     43.340249999999997
C      50.315999999999995     46.903149999999997     42.056850000000004
C      48.639800000000001     49.849549999999994     42.469849999999994
H      48.758800000000001     48.716949999999997     46.324050000000000
H      53.583199999999998     47.719549999999998     48.517049999999998
H      51.135500000000000     49.300049999999999     51.015950000000004
H      51.141100000000002     50.938450000000003     48.993650000000002
H      42.875200000000000     50.141549999999995     45.199550000000002
H      45.512499999999996     49.569050000000004     43.821449999999999
H      46.937300000000000     48.786450000000002     44.572550000000007
H      52.244799999999991     45.764150000000001     42.881550000000004
H      53.903999999999989     45.061549999999997     44.684049999999999
H      54.057099999999998     46.154350000000001     46.840050000000005
H      45.493699999999997     49.010249999999999     53.737250000000003
H      47.769799999999996     49.654650000000004     54.914749999999998
H      49.872999999999998     49.861149999999995     53.422349999999994
H      44.300599999999996     49.843850000000003     52.041750000000008
H      41.942900000000002     49.425349999999995     47.368449999999996
H      42.396200000000000     49.449650000000005     50.000850000000000
H      49.136899999999990     50.734349999999992     45.110950000000003
H      50.897799999999997     50.097449999999995     43.130849999999995
H      49.471399999999996     47.664450000000002     43.966549999999998
H      50.552199999999992     47.538849999999996     41.085250000000002
H      51.092700000000001     46.055750000000003     41.854750000000003
H      49.457400000000000     46.522350000000003     41.892650000000003
H      47.973300000000002     50.115549999999999     43.262450000000001
H      48.681099999999994     50.504950000000001     41.721249999999998
H      48.171299999999995     48.819649999999996     42.314650000000000
