22

C      47.281399999999998     50.666049999999991     48.478249999999989
C      48.025500000000008     50.621949999999998     47.074049999999993
C      47.112500000000004     49.465950000000007     49.166249999999998
C      48.752600000000001     49.322950000000006     46.624350000000000
C      47.638500000000008     48.184250000000006     48.577850000000005
C      48.173500000000004     47.933549999999997     47.211049999999993
C      47.457499999999996     46.983150000000009     49.442150000000005
C      48.725700000000003     46.688850000000002     46.830649999999999
C      47.742200000000011     45.697649999999996     48.965749999999993
C      48.311500000000009     45.531050000000008     47.681649999999998
H      46.317800000000005     51.121949999999998     48.217649999999999
H      47.843900000000005     51.268749999999997     49.327850000000005
H      48.585400000000007     51.434950000000001     46.719050000000003
H      47.255900000000004     51.000850000000000     46.337949999999999
H      47.579599999999999     49.607150000000004     50.056750000000001
H      46.137400000000000     49.136550000000000     49.482650000000000
H      48.704000000000008     49.001550000000009     45.576450000000001
H      49.862600000000000     49.287050000000008     47.067249999999994
H      47.049199999999999     47.136550000000000     50.423549999999999
H      49.269000000000005     46.670749999999998     46.037249999999993
H      47.649400000000000     44.732650000000007     49.685650000000003
H      48.459000000000003     44.565049999999999     47.379950000000001
