21

C      45.845599999999990     46.599049999999991     48.540149999999997
C      46.129100000000008     47.623150000000003     49.685150000000007
C      46.504900000000006     46.936550000000004     47.226950000000002
C      47.809800000000010     47.970350000000003     49.928349999999995
C      47.652400000000000     47.694050000000004     47.381349999999998
C      48.402500000000003     48.260650000000005     48.499750000000006
C      48.348100000000002     47.894650000000006     46.145449999999997
C      49.488000000000000     49.242150000000002     48.532650000000004
C      49.539400000000001     48.796849999999999     46.280850000000001
C      50.136200000000002     49.550350000000002     47.303650000000005
H      45.056899999999999     45.851350000000004     48.738249999999994
H      46.535800000000009     45.951350000000005     49.021150000000006
H      45.861400000000003     48.819650000000003     49.008350000000007
H      45.901300000000006     47.281750000000002     50.690449999999998
H      46.160600000000002     46.873150000000003     46.176249999999996
H      48.010199999999998     46.859650000000009     50.474649999999997
H      47.771100000000004     48.692649999999993     50.574649999999991
H      47.935900000000004     47.578750000000007     45.340249999999997
H      49.665500000000009     49.806850000000004     49.493650000000002
H      50.035499999999999     48.893650000000001     45.309550000000002
H      50.943100000000001     50.148649999999996     47.138649999999998
