8

C      48.065599999999982     47.933599999999991     48.836499999999994
C      47.799899999999994     48.140099999999990     47.299500000000009
H      47.887499999999989     48.787599999999998     49.481899999999996
H      49.047100000000000     48.027699999999996     49.351399999999998
H      47.525199999999998     46.957200000000000     49.107500000000002
H      46.952900000000000     47.289599999999993     46.901499999999999
H      48.670199999999994     48.217499999999987     46.518100000000004
H      47.230599999999995     49.042800000000000     47.157600000000002
