34

C      45.990149999999993     42.743350000000000     47.811549999999997
C      46.281849999999991     43.977850000000004     48.218950000000000
C      46.912750000000003     47.872550000000004     46.248449999999998
C      47.636650000000003     46.045550000000006     48.172050000000006
C      47.109949999999998     47.367150000000009     47.684450000000005
C      47.464050000000000     44.583050000000000     47.831349999999993
C      46.719549999999998     48.147550000000010     48.940850000000005
C      48.161149999999999     46.292050000000003     49.419249999999998
C      47.312249999999999     47.272950000000009     50.043450000000000
C      45.934849999999997     50.458250000000007     45.839850000000006
C      49.351349999999996     52.549650000000000     45.705649999999999
C      47.885949999999994     49.167749999999998     46.127950000000006
C      47.411149999999999     50.566950000000006     46.145350000000001
C      49.238249999999994     49.350949999999997     46.597749999999998
C      48.022250000000000     51.922049999999999     46.552249999999994
C      49.927450000000007     50.552549999999997     46.907649999999997
C      49.403150000000004     51.924549999999996     47.088450000000002
H      46.302350000000004     42.126750000000001     46.911549999999998
H      44.964550000000003     42.371449999999996     48.168950000000002
H      45.366650000000000     44.543850000000006     48.685250000000003
H      45.941850000000002     48.065750000000008     46.122650000000000
H      47.235149999999997     47.043850000000006     45.713649999999994
H      48.208649999999999     44.050250000000005     47.201349999999998
H      46.765450000000001     49.437950000000001     48.639249999999997
H      48.498150000000010     45.422049999999999     50.035750000000000
H      47.518549999999991     47.826650000000001     51.073649999999994
H      45.480550000000001     50.674949999999995     44.926350000000006
H      45.381149999999998     49.655650000000009     46.289849999999994
H      49.270349999999993     53.873249999999999     45.538149999999995
H      49.854450000000000     51.881250000000009     44.943949999999994
H      49.956049999999991     48.628450000000001     46.264649999999996
H      47.319250000000011     52.612449999999995     46.757349999999995
H      51.035449999999997     50.324150000000003     47.149250000000002
H      49.823050000000002     52.555949999999996     48.046849999999999
