5

C      47.800199999999990     48.100749999999991     47.848299999999995
H      47.089900000000000     48.222650000000009     48.827300000000001
H      47.567099999999996     47.065049999999999     47.549900000000001
H      47.451999999999998     48.934950000000001     47.172699999999999
H      48.910100000000000     48.514249999999997     47.876200000000004
