21

C      48.818049999999999     48.847299999999990     50.372004999999994
C      48.729749999999996     48.390599999999992     51.681105000000002
C      47.902950000000004     48.097999999999999     49.538505000000001
C      47.540049999999994     48.914999999999992     43.771735000000000
C      48.226450000000000     46.705999999999989     47.158235000000005
C      48.270750000000007     47.849799999999988     48.161605000000002
C      48.135649999999998     46.954999999999998     45.693024999999999
C      47.786850000000001     49.163799999999995     47.612385000000003
C      47.760249999999999     48.313699999999997     45.221125000000001
C      47.881450000000001     49.328899999999990     46.176304999999999
H      48.701149999999998     45.655000000000001     47.299585000000000
H      49.035150000000002     48.864099999999993     52.723704999999995
H      47.795749999999998     47.922799999999995     52.117405000000005
H      49.523849999999996     49.630399999999995     50.024304999999998
H      47.379450000000006     47.263099999999994     50.036805000000001
H      47.434650000000005     50.108399999999989     43.831715000000003
H      46.476150000000004     48.764599999999987     43.380355000000002
H      48.494150000000005     45.986199999999997     44.939374999999998
H      47.253550000000004     49.810599999999994     48.329104999999998
H      48.171650000000000     48.145299999999992     43.276295000000005
H      47.225949999999997     50.344999999999999     46.033594999999998
