21

C      46.961549999999988     45.870899999999992     47.435394999999986
C      46.498149999999995     47.040500000000009     46.596485000000001
C      48.053650000000005     45.979299999999995     48.428995000000000
C      47.840249999999997     47.918199999999999     46.059905000000001
C      48.734449999999995     47.195700000000002     48.485195000000004
C      48.835149999999999     48.129200000000012     47.276894999999996
C      49.183850000000007     47.820200000000000     49.580394999999996
C      49.656750000000002     49.378399999999999     47.365494999999996
C      49.632050000000007     49.135100000000008     49.759294999999995
C      50.009950000000003     50.005099999999999     48.631895000000000
H      47.059849999999997     44.963899999999995     46.732164999999995
H      46.047349999999994     45.617500000000007     47.927895000000007
H      45.676950000000005     47.622200000000007     47.153895000000006
H      45.777749999999997     46.817300000000003     45.750455000000002
H      47.743549999999999     45.475400000000008     49.375294999999994
H      47.919250000000005     48.895600000000002     45.695404999999994
H      47.936450000000008     46.983900000000006     45.286704999999998
H      49.125950000000003     47.332800000000006     50.500795000000011
H      49.582450000000009     49.765600000000006     46.380375000000001
H      49.780749999999998     49.622700000000009     50.713295000000002
H      50.323049999999995     51.036100000000005     48.926394999999999
