41

C      48.186399999999992     51.922099999999993     48.753449999999994
C      48.354599999999998     44.519799999999996     46.051710000000000
C      48.064100000000003     44.181500000000000     47.500159999999994
C      48.882800000000010     46.139200000000002     45.939039999999999
C      49.046100000000003     44.956600000000002     48.493749999999999
C      49.443300000000001     47.087299999999999     47.009940000000000
C      49.602700000000006     46.449300000000001     48.179349999999999
C      50.704300000000011     47.836900000000000     46.676209999999998
C      50.921200000000006     46.651600000000002     48.957650000000001
C      51.613199999999999     47.871099999999998     48.781549999999996
C      51.446800000000003     48.736399999999996     47.507919999999999
C      44.863700000000001     46.638399999999997     48.023399999999995
C      47.186000000000000     50.738700000000001     49.540649999999999
C      45.668300000000009     47.879700000000000     47.788319999999999
C      47.165300000000009     48.134599999999999     47.942629999999994
C      46.119500000000009     49.154800000000002     48.182949999999998
C      48.514400000000002     47.552399999999999     48.312749999999994
C      46.047900000000006     50.108800000000002     49.179450000000003
C      46.186500000000002     51.118099999999998     50.452550000000002
H      47.183000000000000     52.058700000000002     48.182649999999995
H      48.896500000000010     51.622199999999999     47.962130000000002
H      48.372599999999998     52.895099999999999     48.496049999999997
H      43.690700000000000     46.511299999999999     47.861080000000001
H      44.722200000000008     45.942099999999996     48.980750000000000
H      47.461000000000006     44.545499999999997     45.371879999999997
H      48.752200000000009     43.651100000000000     45.567520000000002
H      47.093200000000003     44.699500000000000     47.701279999999997
H      47.765300000000003     43.104900000000001     47.700339999999997
H      49.588600000000007     46.125599999999999     44.872349999999997
H      48.042999999999999     46.887700000000002     45.763210000000001
H      49.810900000000011     44.518999999999998     49.134650000000008
H      47.994100000000010     44.897500000000001     49.108449999999998
H      51.152800000000006     47.558500000000002     45.756239999999998
H      50.622800000000005     46.244599999999998     49.897649999999999
H      52.309300000000000     48.308900000000001     49.668450000000000
H      52.246200000000009     49.293100000000003     47.118729999999999
H      45.280000000000008     46.030400000000000     47.260739999999998
H      48.111499999999999     50.128500000000003     49.910349999999994
H      49.157900000000005     48.000500000000002     49.258749999999999
H      45.960400000000000     52.135399999999990     50.293949999999995
H      45.426000000000009     50.788199999999996     51.127650000000003
