5

C      48.225949999999997     47.964174999999990     48.240649999999995
H      47.265350000000005     48.238094999999987     48.764949999999999
H      48.734649999999995     48.884555000000006     48.416950000000000
H      47.950949999999999     47.942574999999998     47.235050000000001
H      48.504450000000013     47.115444999999994     48.622050000000002
