22

C      49.800149999999995     50.193649999999984     47.853149999999985
C      48.335449999999994     50.483849999999990     47.969850000000008
C      50.144149999999996     48.614249999999998     48.366650000000007
C      47.583250000000007     49.519250000000000     47.044150000000002
C      48.782349999999994     47.766249999999999     48.508550000000000
C      47.455349999999996     48.285849999999996     47.990350000000007
C      49.075550000000007     46.431349999999995     49.004249999999999
C      46.158649999999994     47.612150000000000     48.391150000000010
C      47.915149999999997     45.662049999999994     48.878649999999993
C      46.517150000000001     46.252049999999997     48.587249999999997
H      50.309150000000002     50.760849999999991     48.667649999999995
H      50.137850000000000     50.307350000000000     46.805350000000004
H      48.209249999999997     51.399850000000001     47.544650000000004
H      47.990949999999998     50.529949999999999     49.099649999999997
H      50.950350000000000     48.278149999999997     49.066149999999993
H      50.915049999999994     48.241749999999996     47.476249999999993
H      46.606650000000002     49.755649999999989     46.556749999999994
H      48.185550000000006     48.685449999999989     46.311949999999996
H      49.895449999999997     46.052650000000000     49.688050000000004
H      45.049650000000000     48.017749999999992     48.386749999999992
H      47.947950000000006     44.600149999999999     49.158749999999998
H      45.406750000000002     45.834949999999992     48.767049999999998
