22

C      46.930749999999996     45.687749999999994     46.831649999999989
C      47.153149999999997     47.161650000000002     46.186650000000000
C      48.193049999999999     45.575650000000003     48.047150000000002
C      46.710250000000002     47.649949999999997     48.867450000000005
C      48.196849999999998     46.973449999999993     48.677350000000004
C      47.732150000000004     47.817950000000003     47.687449999999998
C      49.226150000000004     47.305850000000000     49.571849999999998
C      48.230050000000006     49.240549999999992     47.670950000000005
C      49.449050000000000     48.737850000000002     49.598550000000003
C      48.960450000000009     49.797750000000001     48.729749999999996
H      47.224150000000009     45.262549999999997     45.858649999999997
H      45.913049999999998     45.556249999999999     47.025850000000005
H      47.745950000000008     47.169850000000004     45.378150000000005
H      46.117750000000001     47.397649999999992     45.975549999999998
H      47.842550000000003     45.079850000000000     49.064650000000000
H      49.138350000000003     45.114849999999997     47.699449999999999
H      46.097149999999999     46.759949999999996     48.570549999999997
H      46.601150000000004     48.099150000000002     49.916049999999998
H      49.327650000000006     46.955049999999993     50.621849999999995
H      47.962649999999996     50.059149999999995     46.870149999999995
H      50.086950000000002     49.129649999999991     50.297150000000002
H      49.341750000000005     50.920150000000000     48.940449999999998
