7

C      48.464359999999992     48.435399999999994     48.159999999999989
C      47.276570000000000     47.422899999999998     48.233500000000006
H      47.693480000000001     46.453299999999999     48.483000000000004
H      46.621299999999998     48.060400000000001     48.880499999999998
H      49.378700000000002     47.810099999999991     47.936000000000007
H      47.193150000000003     47.591699999999989     47.119500000000002
O      48.178110000000004     49.546700000000001     48.459500000000006
