22

C      49.499329999999986     49.589549999999996     46.749499999999991
C      50.222559999999994     49.643050000000002     48.024899999999988
C      48.083069999999999     48.751450000000006     47.116199999999999
C      49.538229999999992     49.004850000000005     49.239799999999988
C      46.977939999999997     48.866550000000004     48.329799999999999
C      48.349519999999998     48.215050000000005     48.553999999999988
C      48.157239999999994     46.945549999999997     49.141099999999994
C      45.581309999999995     48.159149999999997     48.427700000000002
C      46.976539999999993     46.139949999999999     48.940599999999989
C      45.730979999999995     46.710149999999999     48.405299999999997
H      49.289599999999993     50.790750000000003     46.333199999999998
H      50.158329999999999     48.928250000000006     45.766900000000000
H      51.424500000000002     49.410150000000002     47.802599999999998
H      50.140599999999999     50.675950000000000     48.377199999999995
H      48.009239999999998     47.952749999999995     46.447099999999999
H      46.799739999999993     50.007149999999996     47.914200000000008
H      49.153659999999995     49.517949999999999     50.233100000000000
H      50.087129999999995     48.141750000000002     49.727599999999995
H      48.889439999999993     46.240849999999995     49.515200000000000
H      44.575499999999998     48.786150000000006     48.182999999999993
H      47.156429999999993     45.209249999999997     49.600400000000008
H      44.754459999999995     46.076250000000002     48.144799999999996
