6

C      48.619749999999982     48.001964999999998     48.179824999999994
C      47.370549999999994     47.841485000000006     47.744914999999999
H      49.193449999999999     47.978984999999994     49.221944999999998
H      49.395350000000008     48.032605000000004     47.305214999999997
H      46.604649999999992     47.842354999999998     48.637864999999998
H      47.038049999999998     48.158514999999994     46.778055000000002
