22

C      48.178449999999991     48.708449999999992     46.115289999999995
C      48.631080000000004     49.938450000000003     47.105230000000006
C      46.473984999999999     47.401350000000001     48.144300000000001
C      47.838920000000002     49.657550000000001     48.519890000000004
C      47.715859999999999     47.713050000000003     47.221930000000000
C      47.788000000000004     48.158149999999999     48.618369999999999
C      48.252420000000001     46.284550000000003     47.086219999999997
C      48.765919999999994     47.593750000000000     49.406930000000003
C      49.410490000000010     45.720750000000002     47.755120000000005
C      49.601869999999991     46.505049999999997     49.016980000000004
H      47.375039999999998     48.891649999999998     45.433070000000001
H      48.959400000000002     48.284450000000000     45.447550000000007
H      48.231580000000001     50.862150000000000     46.622900000000001
H      49.646549999999991     50.004850000000005     47.262970000000010
H      45.616919999999993     48.045150000000000     47.905450000000002
H      46.116820000000025     46.102049999999998     48.318510000000003
H      48.282560000000004     50.103149999999999     49.355130000000003
H      46.811650999999998     49.977050000000006     48.410790000000006
H      47.942850000000000     45.899749999999997     46.068200000000004
H      48.780259999999998     47.897150000000003     50.566929999999999
H      50.311199999999999     45.137850000000000     47.370710000000003
H      50.383080000000007     46.101750000000003     49.612729999999999
