5

C      48.008599999999994     48.263144999999994     48.033899999999996
H      48.255699999999997     48.856655000000003     47.194800000000001
H      48.868499999999997     48.541184999999999     48.634500000000003
H      47.864800000000002     47.143344999999997     47.828100000000006
H      47.131500000000003     48.451324999999997     48.805199999999999
