23

C      47.092399999999998     46.314849999999993     46.786549999999991
C      47.535200000000003     47.046550000000003     47.959850000000003
C      48.970099999999988     46.991950000000010     49.975549999999991
C      46.233499999999992     49.615750000000013     49.617950000000000
C      48.887599999999992     47.231950000000005     48.512250000000002
C      48.381600000000006     48.650449999999999     48.180450000000000
C      49.988499999999988     46.882350000000010     47.640250000000002
C      47.490399999999994     49.627250000000011     49.194849999999995
C      50.069399999999987     47.977950000000000     46.633150000000001
C      49.575699999999998     49.156650000000006     47.386949999999999
H      46.827399999999997     46.927250000000008     45.912250000000000
H      47.875100000000003     45.917950000000012     46.192450000000001
H      46.451200000000000     45.557150000000000     47.355649999999990
H      46.602599999999995     47.200850000000010     48.585349999999998
H      48.572199999999995     47.875850000000007     50.450049999999997
H      50.114399999999989     46.956450000000011     50.363050000000008
H      45.862399999999994     50.442850000000000     50.210850000000001
H      45.314700000000002     48.797150000000009     49.328850000000003
H      50.098399999999998     45.718650000000004     47.335050000000003
H      48.294699999999992     50.259450000000008     49.462350000000001
H      50.685299999999998     48.029650000000011     45.549950000000003
H      49.557900000000004     50.244450000000008     46.824149999999996
H      48.289599999999993     46.317850000000000     50.335349999999998
