22

C      49.228399999999993     46.657049999999998     45.947149999999993
C      49.001499999999993     46.285950000000000     47.461849999999998
C      49.103799999999993     48.293650000000000     46.104250000000008
C      49.562699999999992     47.181750000000008     48.535150000000002
C      48.233099999999993     48.760250000000013     47.368350000000007
C      48.440199999999990     48.335050000000010     48.737850000000009
C      47.357399999999998     49.866750000000010     47.224050000000005
C      47.626099999999994     48.658850000000015     49.825950000000006
C      46.417099999999991     50.123850000000004     48.331450000000004
C      46.539400000000001     49.571850000000012     49.563749999999999
H      48.715699999999998     46.046350000000004     45.293149999999997
H      50.263700000000000     46.644150000000010     45.716549999999998
H      49.200899999999990     45.223050000000001     47.382950000000008
H      47.843699999999998     46.567050000000009     47.512950000000004
H      49.006699999999995     48.765950000000004     45.123649999999998
H      50.204699999999988     48.445450000000008     46.230249999999998
H      50.433700000000002     47.746750000000006     48.213350000000005
H      49.868299999999991     46.982250000000008     49.585650000000001
H      46.972200000000001     50.331350000000000     46.448650000000001
H      47.879499999999993     48.581850000000017     50.876350000000002
H      45.566299999999998     50.776949999999999     48.163550000000015
H      45.815500000000000     49.930750000000003     50.349150000000009
