22

C      48.308169999999990     50.343049999999991     48.246350000000000
C      46.973669999999998     49.690950000000001     47.560850000000002
C      49.469170000000005     49.482150000000004     47.769650000000006
C      46.546549999999996     47.612049999999996     48.704450000000008
C      48.845970000000008     47.977249999999998     47.964450000000006
C      47.424869999999999     48.164349999999999     47.666150000000002
C      49.376469999999998     46.695750000000004     48.163350000000001
C      46.750140000000002     46.849549999999994     47.040450000000007
C      48.484669999999994     45.498750000000001     47.956550000000007
C      47.420069999999996     45.499750000000006     47.089150000000004
H      48.312070000000006     51.428849999999997     47.989350000000002
H      47.990269999999995     50.508150000000001     49.324950000000001
H      46.096440000000001     50.200249999999997     47.969950000000004
H      47.232569999999996     50.105850000000004     46.421350000000004
H      50.393370000000004     49.841049999999996     48.293150000000004
H      49.630369999999999     49.858750000000001     46.774950000000004
H      47.006770000000003     47.273550000000000     49.655349999999999
H      45.606629999999996     47.910150000000002     48.827250000000006
H      50.107170000000011     46.750349999999997     48.853949999999998
H      46.052679999999995     47.004949999999994     46.344650000000001
H      48.839470000000006     44.571150000000003     48.415050000000008
H      46.849369999999993     44.594849999999994     46.906650000000006
