5

C      47.940849999999998     48.012849999999993     48.070849999999993
H      47.148450000000004     48.739049999999999     47.981749999999998
H      47.959750000000007     47.260950000000001     48.856450000000002
H      48.851549999999996     48.604350000000004     48.520750000000000
H      48.317249999999994     47.667450000000002     47.143549999999998
