61

C      48.415849999999992     47.890709999999999     49.213484999999999
C      47.140749999999997     48.588180000000001     49.787085000000005
C      46.410049999999998     47.840430000000005     41.705685000000003
C      48.836250000000000     47.772730000000003     47.799985000000007
C      46.305149999999998     49.084250000000004     48.828185000000005
C      47.272750000000002     48.204340000000002     42.914185000000003
C      48.116949999999996     47.990780000000008     45.408784999999995
C      45.793349999999997     49.255659999999999     46.450185000000005
C      47.920249999999996     48.211959999999998     46.736684999999994
C      46.666350000000001     48.730759999999997     47.330884999999995
C      46.661249999999995     48.084960000000002     44.407484999999994
C      45.459150000000001     48.686610000000009     45.122484999999998
C      49.137650000000001     47.071780000000004     50.182884999999999
C      48.510750000000009     47.048310000000001     51.497655000000009
C      47.425350000000002     47.950619999999994     51.940485000000010
C      46.776550000000000     49.088100000000004     51.224174000000005
C      50.317050000000002     46.259530000000005     49.740584999999996
C      50.932949999999998     45.697160000000004     50.899422000000008
C      50.537549999999989     45.720940000000006     52.271435000000011
C      49.261850000000003     46.303720000000006     52.546265000000005
C      50.591949999999997     46.104170000000003     48.291084999999995
C      50.047550000000001     46.916730000000001     47.364985000000004
C      50.216050000000003     47.143050000000002     45.866185000000002
C      49.373650000000005     47.628090000000000     44.897185000000007
C      47.128749999999997     47.969570000000012     53.362885000000006
C      46.199849999999998     48.939880000000009     53.935255000000005
C      45.365349999999999     49.788800000000002     53.050605000000012
C      45.497450000000001     49.645170000000000     51.694935000000001
C      45.056449999999998     49.739780000000003     49.291685000000001
C      44.617350000000002     49.992700000000006     50.684181000000009
C      49.675550000000008     47.478110000000001     43.308085000000005
C      48.657249999999998     48.651860000000006     42.846284999999995
C      46.358150000000002     47.179630000000003     43.234785000000002
C      48.687449999999998     49.968769999999999     43.952385000000007
C      51.423449999999995     46.187110000000004     45.533484999999999
H      46.176949999999998     47.006260000000005     41.014084999999994
H      46.585250000000002     46.244410000000002     43.626784999999998
H      43.674849999999999     48.400040000000011     45.622585000000001
H      44.847049999999996     49.836019999999998     46.891085000000004
H      51.882050000000000     45.112530000000000     50.759097000000011
H      51.309849999999997     45.181510000000003     52.820255000000003
H      48.862749999999998     46.299160000000001     53.477215000000001
H      51.339449999999999     45.257450000000006     48.115285000000000
H      47.368350000000000     47.290920000000007     54.158205000000009
H      46.229549999999996     49.132180000000005     54.985915000000006
H      44.969349999999999     50.666869999999996     53.483685000000008
H      44.087849999999996     50.079940000000001     48.775985000000006
H      43.795549999999999     50.629569999999994     50.938685000000007
H      47.538249999999998     50.027010000000004     51.913445000000010
H      50.614049999999999     47.726330000000004     43.327185000000000
H      49.541950000000007     46.446830000000006     42.868184999999997
H      48.949649999999998     49.013820000000003     41.791984999999997
H      43.920850000000002     47.959710000000008     43.553984999999997
H      45.411949999999997     48.360740000000000     41.819884999999999
H      48.939050000000002     50.887470000000000     43.462685000000008
H      48.005150000000000     50.185269999999996     44.706685000000007
H      49.716650000000008     49.817250000000008     44.361384999999999
H      52.325150000000001     46.447060000000000     45.113585000000000
H      51.744149999999998     45.567540000000001     46.485084999999998
H      51.264749999999999     45.610150000000004     44.635384999999999
N      44.149949999999997     48.565310000000004     44.518884999999997
