22

C      49.229199999999992     46.674250000000001     47.128869999999992
C      48.347900000000003     45.458749999999995     47.580570000000002
C      47.580499999999994     48.381349999999998     49.676949999999998
C      47.166499999999999     46.293049999999994     48.294769000000009
C      48.610099999999996     47.953249999999997     47.119470000000000
C      47.663499999999999     47.791849999999997     48.345763000000012
C      48.662399999999998     49.350349999999992     46.681970000000000
C      46.708700000000000     48.966949999999997     48.605356000000000
C      47.657899999999998     50.400949999999995     46.876669999999997
C      46.557600000000001     50.089249999999993     47.794069999999998
H      50.272399999999998     46.682749999999999     47.455269999999992
H      49.542600000000000     46.440650000000005     45.895869999999995
H      47.778100000000002     44.704650000000001     46.826869999999992
H      48.886599999999994     44.814049999999995     48.212031799999998
H      48.357300000000002     48.868749999999991     50.102570000000000
H      46.905799999999999     47.679249999999996     50.372430000000001
H      46.847299999999997     45.864750000000001     49.118292000000004
H      46.236199999999997     45.980750000000000     47.691369999999999
H      48.942900000000002     49.599649999999997     45.627569999999999
H      45.727600000000002     48.733049999999992     49.054452000000005
H      47.574900000000000     51.295349999999999     46.245069999999991
H      45.791300000000000     50.977849999999989     47.756070000000001
