34

C      47.979449999999993     47.914549999999991     48.577149999999996
C      48.076449999999994     46.737449999999995     47.633650000000003
C      49.258150000000001     48.235050000000001     49.318950000000001
C      49.348150000000004     46.377449999999996     46.961550000000003
C      51.684449999999998     46.811349999999997     48.355350000000001
C      50.471649999999997     47.824950000000001     48.705250000000007
C      50.440550000000002     46.856349999999999     47.617550000000008
C      46.821050000000000     48.824549999999995     48.842150000000004
C      45.574950000000001     48.465649999999989     48.086950000000002
C      45.525549999999996     47.133049999999997     47.492050000000006
C      46.800349999999995     46.403649999999999     47.046850000000006
C      46.819950000000006     49.918149999999990     49.707549999999998
C      45.623850000000004     50.729549999999996     49.903950000000009
C      44.406250000000000     50.397449999999999     49.262749999999997
C      44.463449999999995     49.453150000000001     48.108450000000005
C      49.422849999999997     49.290849999999999     50.310350000000000
C      48.176850000000002     50.291249999999998     50.534950000000009
C      51.782150000000001     46.683850000000000     46.850049999999996
C      49.012950000000004     45.575550000000000     45.578649999999996
C      47.488649999999993     45.768650000000001     45.933250000000001
H      52.558049999999994     46.455549999999995     48.905450000000002
H      44.421250000000001     47.003349999999998     47.637850000000000
H      45.743750000000006     51.550750000000001     50.846950000000007
H      43.441950000000006     50.893650000000001     49.534850000000006
H      43.709249999999997     49.681350000000002     47.382649999999998
H      49.451849999999993     48.916849999999997     51.365750000000006
H      50.398650000000004     49.866650000000000     50.194550000000007
H      48.555350000000004     51.386850000000003     50.256349999999998
H      48.176249999999996     49.913750000000000     51.463750000000005
H      51.720950000000002     47.126649999999998     45.914850000000001
H      52.083349999999996     45.700150000000001     46.538750000000007
H      49.476450000000000     44.449249999999999     45.607349999999997
H      49.241450000000000     45.967749999999995     44.536249999999995
H      47.002949999999998     45.293050000000001     45.083750000000009
