78

C      43.870949999999986     48.660499999999992     51.787849999999992
C      44.710049999999995     52.052499999999995     44.112949999999998
C      51.774379999999994     51.960899999999995     46.301549999999992
C      46.248090849999997     49.821500000000000     52.797250000000005
C      45.302649999999986     48.888300000000001     52.248249999999999
C      46.693376000000001     50.527000000000001     44.183350000000004
C      47.170890999999997     45.039800000000000     45.465649999999997
C      44.945449999999994     52.318200000000004     45.583649999999992
C      50.368090000000002     51.329700000000003     46.372249999999994
C      47.939860000000003     46.215099999999993     45.215949999999992
C      46.509572999999989     51.313100000000006     50.035449999999997
C      45.666249999999991     52.470399999999998     50.250749999999996
C      45.878749999999997     51.690899999999999     51.383949999999999
C      46.443213000000000     48.813100000000006     51.571249999999992
C      46.310813500000009     49.199100000000001     44.422150000000002
C      47.433270000000000     47.644599999999997     46.099249999999998
C      46.300125899999998     50.109300000000005     45.671449999999993
C      47.089960000000005     49.366900000000001     48.137249999999995
C      46.315036800000001     50.586500000000001     48.730549999999994
C      45.694949999999992     51.570700000000002     47.857950000000002
C      46.891373000000002     48.960300000000004     46.765749999999997
C      45.567249999999987     51.302199999999999     46.456450000000004
C      49.551510000000000     50.128699999999995     46.429149999999993
C      49.632760000000005     48.992199999999997     47.376750000000001
C      45.655149999999992     51.165700000000001     52.830949999999987
C      47.564279999999997     47.682100000000005     51.394449999999992
C      45.393849999999986     52.916299999999993     48.758150000000001
C      46.252248670000000     47.674199999999999     43.871250000000003
C      45.937349999999995     51.661400000000000     43.259649999999993
C      47.624859999999998     47.354600000000005     44.720050000000001
C      47.946349999999995     48.435000000000002     47.516750000000002
C      49.257109999999997     51.111400000000003     45.681049999999999
C      50.337190000000000     42.892799999999994     49.274149999999992
C      51.187550000000002     43.080799999999996     50.623949999999994
C      48.701650000000001     42.947699999999998     49.236649999999997
C      50.744840000000011     44.057299999999998     51.531250000000000
C      48.330290000000005     44.297100000000000     50.032950000000000
C      49.289259999999999     44.549700000000001     51.115250000000003
C      47.124636999999993     43.883899999999997     50.770049999999998
C      48.814740000000000     45.569999999999993     49.763850000000005
C      46.814658000000001     45.343000000000004     50.821650000000005
C      47.473470000000006     46.571799999999996     50.160950000000000
H      43.867049999999992     47.910300000000007     50.913650000000004
H      49.594740000000002     45.897499999999994     49.143349999999998
H      43.410449999999997     49.693799999999996     51.595450000000000
H      44.010649999999998     52.579800000000006     43.402149999999992
H      43.276649999999989     48.149100000000004     52.492549999999994
H      46.685938000000000     49.347399999999993     53.791849999999997
H      49.006050000000002     45.914299999999997     45.205950000000001
H      44.300749999999994     53.098299999999995     46.062950000000001
H      50.380360000000010     48.258099999999999     47.121049999999997
H      49.902070000000009     49.431299999999993     48.145550000000000
H      46.379531999999998     51.774600000000007     53.545950000000005
H      44.669049999999999     50.992000000000004     53.261149999999986
H      48.526609999999998     48.011899999999997     50.916150000000002
H      48.133949999999999     47.392399999999995     52.301249999999996
H      44.422849999999997     53.467500000000001     48.075050000000005
H      45.964049999999986     53.938599999999994     48.581949999999992
H      46.350417000000000     47.740200000000002     42.738050000000001
H      45.272749999999988     47.111999999999995     43.986649999999997
H      46.626094999999999     52.590000000000003     43.038049999999998
H      46.016549999999995     51.165400000000005     42.208150000000003
H      48.468809999999998     48.023300000000006     44.173950000000005
H      48.665769999999995     51.607900000000001     44.629549999999995
H      50.637000000000000     43.915400000000005     48.612650000000002
H      50.707680000000003     42.225099999999998     48.481449999999995
H      52.349350000000001     42.969899999999996     50.385649999999998
H      51.037559999999999     42.061400000000006     51.120949999999993
H      48.363129999999998     42.075000000000003     49.687449999999998
H      48.501750000000001     42.922399999999996     48.156649999999999
H      50.641379999999998     43.560400000000001     52.625649999999993
H      51.649209999999997     44.712400000000002     51.489549999999994
H      46.488019999999999     42.910399999999996     50.492850000000004
H      49.181309999999996     44.907100000000000     52.228149999999999
H      46.039149999999992     46.015299999999996     51.246349999999993
H      46.866244999999999     46.998599999999996     49.414249999999996
O      46.426623999999997     44.312799999999996     45.840050000000005
O      52.723350000000011     52.401200000000003     45.995949999999993
