9

C      48.431534999999990     48.923299999999998     48.237899999999982
C      47.363084999999998     47.902799999999999     47.591600000000000
C      48.045965000000002     46.715299999999999     47.588200000000001
H      49.405895000000001     49.092500000000001     47.598900000000000
H      47.890835000000003     49.839799999999997     47.897799999999989
H      48.480085000000003     48.715599999999995     49.245900000000006
H      46.594104999999999     48.192800000000005     47.131799999999998
H      47.405945000000003     46.160200000000003     46.754099999999994
H      49.028844999999997     46.367999999999995     48.103600000000000
