22

C      45.625499999999995     47.709999999999994     47.766349999999996
C      45.715499999999992     47.766799999999996     49.180950000000010
C      46.954000000000001     46.869399999999992     46.924750000000003
C      47.217199999999998     48.007100000000001     49.559049999999999
C      48.182699999999997     47.638299999999994     47.186850000000007
C      48.288700000000006     48.163099999999993     48.495649999999998
C      49.511400000000009     47.428000000000004     46.457149999999999
C      49.087299999999999     49.276599999999995     48.831750000000000
C      50.314900000000002     48.617100000000001     46.655650000000009
C      50.210299999999989     49.385100000000001     47.837950000000006
H      45.579099999999997     48.562099999999994     47.162450000000007
H      44.914499999999997     46.790900000000001     47.329650000000001
H      45.616999999999997     46.833700000000000     49.700150000000008
H      45.072099999999999     48.394799999999996     49.702650000000006
H      47.301299999999998     45.853500000000004     47.373450000000005
H      47.003000000000000     46.624099999999991     45.835350000000005
H      47.439700000000002     46.904999999999994     50.046650000000000
H      47.269499999999994     48.736399999999996     50.367249999999999
H      49.562800000000010     46.726800000000004     45.632750000000001
H      48.815799999999996     50.085000000000001     49.565049999999999
H      51.085500000000003     48.544899999999991     45.812849999999997
H      50.889099999999999     50.146499999999996     47.874850000000009
