22

C      47.778299999999987     48.759649999999993     50.640699999999995
C      46.927399999999992     47.644950000000001     50.185600000000001
C      49.040099999999995     48.868250000000003     49.701500000000003
C      47.605300000000000     46.594149999999999     49.232700000000001
C      48.726500000000001     48.573650000000001     48.187800000000003
C      48.233400000000003     47.155250000000002     47.904400000000003
C      49.252799999999993     49.171949999999988     46.969200000000001
C      47.855800000000002     46.805549999999997     46.524099999999997
C      48.651899999999998     49.004450000000006     45.678199999999997
C      48.008099999999999     47.715049999999998     45.368200000000002
H      48.058700000000002     48.398150000000001     51.675999999999995
H      47.538799999999995     49.761350000000014     50.724700000000006
H      46.204499999999996     47.857950000000002     49.515700000000002
H      46.298299999999998     46.951950000000004     51.001699999999992
H      49.589500000000001     49.787149999999990     49.912100000000002
H      49.663799999999995     47.969749999999998     49.843200000000003
H      46.901699999999991     45.992849999999997     48.584300000000006
H      48.140500000000003     45.921050000000001     50.038199999999996
H      49.795500000000004     50.078949999999999     47.239100000000001
H      46.826899999999995     46.325049999999997     46.263700000000000
H      48.952900000000000     49.628349999999998     44.968100000000000
H      47.712199999999996     47.488450000000000     44.324000000000005
