22

C      47.734399999999994     48.904899999999998     50.167199999999994
C      47.218069999999997     50.119300000000003     49.413699999999992
C      48.995019999999997     48.270199999999996     49.716799999999992
C      48.004419999999982     50.226800000000004     47.960200000000000
C      48.713549999999998     47.529199999999996     48.218099999999993
C      48.236599999999996     48.637099999999997     47.549300000000002
C      49.023919999999990     46.198000000000000     47.872699999999995
C      47.990729999999999     48.065400000000004     46.250699999999995
C      48.958189999999988     45.861399999999996     46.386200000000002
C      48.292209999999997     46.736200000000004     45.666799999999995
H      47.432679999999991     49.089499999999994     51.375799999999998
H      46.737229999999997     48.197899999999997     49.900399999999991
H      46.136600000000001     50.088000000000001     49.445499999999996
H      47.265099999999990     51.080999999999996     50.006199999999993
H      49.421599999999998     47.388200000000005     50.239800000000002
H      49.863399999999999     49.060600000000001     49.621399999999994
H      49.140309999999985     50.176899999999996     48.258899999999997
H      47.624789999999990     50.993000000000002     47.018199999999993
H      49.283369999999991     45.483899999999998     48.614499999999992
H      47.866529999999983     48.966900000000003     45.571699999999993
H      49.431929999999994     44.919000000000004     46.210599999999999
H      48.173139999999989     46.385700000000007     44.624200000000002
