22

C      46.355799999999995     46.214079999999981     48.324149999999989
C      45.481400000000001     47.401089999999996     48.107349999999997
C      47.807900000000004     46.797780000000003     48.955149999999996
C      46.221600000000002     48.285100000000000     47.046050000000001
C      48.655799999999999     47.597870000000000     47.995550000000001
C      47.841600000000000     48.418000000000006     47.191549999999999
C      49.961199999999998     47.562430000000006     48.179850000000002
C      48.593900000000005     49.531500000000008     46.506749999999997
C      50.479599999999991     48.821300000000008     47.469949999999997
C      49.963700000000003     49.848799999999997     46.632649999999998
H      45.868600000000001     45.478609999999989     49.091850000000001
H      46.306300000000000     45.456599999999995     47.530549999999998
H      45.069299999999998     47.980390000000000     49.113949999999996
H      44.438600000000001     47.230040000000002     47.935249999999996
H      48.259500000000003     45.763149999999996     49.340349999999994
H      47.614800000000002     47.113280000000003     49.989150000000002
H      46.263500000000001     47.959049999999991     46.010849999999998
H      46.053500000000000     49.428399999999996     46.738250000000001
H      50.506699999999995     47.057710000000000     48.968449999999997
H      47.790300000000002     50.259299999999996     46.487249999999996
H      51.561399999999999     49.157399999999996     47.425950000000000
H      50.608199999999997     50.543400000000005     46.183850000000000
