6

C      48.213199999999993     47.776299999999992     48.582049999999995
C      47.621800000000000     48.218899999999998     47.497149999999998
H      47.705800000000004     47.467199999999998     49.428750000000001
H      46.725200000000001     48.429600000000001     47.619149999999998
H      47.970800000000004     48.532800000000002     46.571249999999999
H      49.274799999999999     47.743699999999997     48.676750000000006
