22

C      48.602149999999995     45.762249999999995     46.781299999999995
C      50.095950000000009     45.561750000000004     47.454300000000003
C      48.868450000000003     45.411250000000003     48.094200000000001
C      48.808750000000011     46.680350000000011     49.159000000000006
C      49.042650000000002     49.235049999999994     48.448099999999997
C      48.354550000000010     48.098750000000003     48.706299999999999
C      48.494650000000000     50.593849999999996     48.266199999999998
C      46.939450000000001     47.967750000000002     48.207800000000006
C      47.105850000000011     50.531650000000006     48.196399999999997
C      46.447750000000006     49.237649999999995     48.024900000000002
H      48.791450000000005     44.964050000000007     46.079200000000000
H      48.524250000000002     46.667450000000009     46.238700000000001
H      50.279250000000012     46.631050000000002     47.205600000000004
H      50.616250000000001     44.579250000000002     47.373300000000000
H      48.785850000000003     44.500750000000004     48.738100000000003
H      50.216349999999998     48.936150000000005     48.256900000000002
H      48.034950000000002     46.565149999999996     49.920800000000000
H      49.795650000000002     46.642150000000008     49.545900000000003
H      49.014650000000010     51.499249999999996     48.475600000000000
H      46.257050000000000     46.955450000000006     48.353999999999999
H      46.603050000000003     51.491850000000007     48.028400000000005
H      45.383749999999999     49.291050000000006     48.016300000000001
