22

C      50.217249999999993     47.958599999999990     47.994199999999999
C      50.326250000000002     46.483900000000006     48.957900000000009
C      48.348349999999996     50.146900000000002     47.834800000000001
C      48.595349999999996     46.225700000000003     49.090699999999998
C      48.758250000000004     48.503900000000002     48.161200000000008
C      47.889049999999997     47.444100000000006     48.659500000000008
C      47.982150000000004     49.252399999999994     46.784000000000006
C      46.551749999999998     47.403500000000008     48.423100000000005
C      46.569450000000003     49.386899999999997     46.625799999999998
C      45.971649999999997     48.459299999999999     47.489900000000006
H      50.414950000000005     47.758899999999997     46.807699999999997
H      50.874449999999996     48.781600000000012     48.382000000000005
H      51.052549999999997     45.684899999999999     48.542299999999997
H      50.956350000000000     46.735600000000005     49.692900000000009
H      47.534549999999996     50.629000000000005     48.284700000000001
H      49.316249999999997     50.760099999999994     47.927000000000007
H      48.610150000000004     46.005700000000004     50.166200000000003
H      48.182950000000005     45.239900000000006     48.659400000000005
H      48.402950000000004     49.128500000000003     45.833799999999997
H      45.916049999999998     46.644099999999995     48.461799999999997
H      46.269350000000003     50.082000000000008     46.017499999999998
H      44.947450000000003     48.400800000000004     47.210300000000004
