22

C      50.771599999999992     48.183399999999999     47.771599999999992
C      50.181599999999996     47.392499999999998     46.479199999999999
C      49.659799999999997     48.203400000000002     48.853699999999996
C      48.614600000000003     47.150400000000005     46.504300000000001
C      48.194099999999999     48.472400000000007     48.609299999999998
C      47.568599999999996     47.832800000000006     47.427700000000002
C      47.273400000000002     49.141400000000004     49.566600000000001
C      46.069600000000001     47.717600000000004     47.265700000000002
C      45.923099999999998     49.287900000000008     49.321799999999989
C      45.281600000000005     48.519000000000005     48.248500000000000
H      49.901100000000000     49.125000000000000     49.602800000000009
H      51.777600000000000     47.865200000000002     48.167399999999994
H      50.471799999999995     48.050899999999999     45.562599999999996
H      50.839599999999997     46.609099999999998     46.204099999999997
H      50.138799999999996     47.417500000000004     49.557499999999997
H      50.683699999999995     49.072900000000004     47.154200000000003
H      48.339900000000000     46.114599999999996     46.489800000000002
H      48.300899999999999     47.462600000000009     45.465899999999998
H      47.603900000000003     49.466400000000007     50.534100000000002
H      45.524600000000000     47.097800000000007     46.517899999999997
H      45.426499999999997     49.885400000000004     49.974399999999996
H      44.222400000000000     48.716499999999996     48.082900000000002
