42

C      45.702649999999991     44.237599999999993     46.672249999999991
C      45.908349999999999     48.997300000000010     48.137650000000001
C      46.081250000000011     47.670200000000008     48.646749999999997
C      44.942850000000007     46.942599999999999     47.572849999999995
C      44.480950000000007     47.755600000000001     46.503850000000000
C      44.814050000000009     49.218200000000010     46.978349999999999
C      47.299950000000010     48.567300000000003     47.778849999999998
C      45.314450000000008     45.565200000000004     47.915450000000000
C      45.846450000000004     50.195999999999998     49.243250000000010
C      44.123050000000006     50.387300000000010     46.510050000000000
C      48.763050000000007     50.607600000000005     47.629049999999999
C      50.250050000000002     50.814599999999999     47.082950000000004
C      48.807450000000003     49.073400000000007     48.288550000000001
C      50.936250000000001     49.353099999999998     46.772250000000007
C      50.877250000000004     48.717200000000005     49.130450000000003
C      50.174850000000006     48.431700000000006     47.863650000000000
C      51.691650000000010     47.716600000000000     49.796149999999997
C      50.013850000000005     47.163600000000002     47.282150000000009
C      51.549350000000004     46.460300000000004     49.145949999999992
C      50.702250000000006     46.066500000000005     48.055250000000008
H      46.407750000000007     47.288200000000003     49.625049999999995
H      43.787149999999997     47.152900000000002     45.680050000000001
H      47.355050000000006     48.678300000000007     46.706550000000000
H      45.641950000000008     51.119300000000010     48.852750000000007
H      44.815250000000006     49.746000000000009     49.189950000000003
H      46.172150000000002     50.426200000000009     50.183549999999990
H      44.303849999999997     51.242400000000004     47.055850000000000
H      43.344949999999997     50.416499999999999     45.704349999999998
H      48.019250000000014     51.348799999999997     48.128250000000001
H      48.053150000000002     50.451800000000006     46.808850000000000
H      50.513450000000006     51.914800000000000     46.675850000000004
H      51.041650000000004     50.955300000000008     47.828550000000000
H      50.935850000000002     49.658200000000008     49.774349999999998
H      48.757450000000006     49.230800000000002     49.328049999999998
H      52.058850000000007     49.342300000000009     46.935049999999997
H      50.784450000000007     49.055800000000005     45.638150000000003
H      52.655050000000003     47.855300000000000     50.427950000000003
H      49.193050000000014     47.006200000000007     46.632750000000001
H      52.479150000000004     45.946800000000010     49.411050000000003
H      51.069650000000010     45.457900000000009     47.097150000000006
O      45.652250000000009     44.085200000000000     45.572049999999997
O      45.230850000000004     44.386200000000002     48.115150000000000
