52

C      47.909714999999991     48.352502500000000     47.825699999999998
C      49.145715000000010     47.325802500000002     48.616300000000003
C      46.924415000000010     49.989102500000008     52.318800000000003
C      47.475215000000006     49.545202499999995     48.602300000000007
C      47.316915000000009     47.932102500000006     50.316300000000005
C      47.358215000000001     50.433702500000003     51.010600000000004
C      46.938614999999999     47.601202500000007     51.653900000000000
C      47.624715000000009     49.433502499999996     49.992600000000003
C      46.943615000000008     48.488502500000003     52.675699999999999
C      48.435415000000006     48.307802500000001     46.371699999999997
C      49.400415000000010     47.263802500000004     46.316899999999997
C      49.900514999999999     46.522702500000001     47.446599999999997
C      47.717015000000004     47.162802500000005     49.055200000000006
C      48.164115000000010     49.352102500000008     45.501500000000000
C      48.519015000000010     48.973902500000001     44.112299999999998
C      49.036614999999998     47.631902500000002     43.860700000000001
C      49.536915000000008     46.863102500000004     44.872400000000006
C      50.564215000000004     45.314002500000008     47.004600000000003
C      47.394715000000005     45.797702500000007     48.766600000000004
C      45.648115000000004     46.328202499999996     51.804099999999998
C      47.993015000000014     47.440402499999998     52.738800000000005
C      47.812215000000009     51.909002500000007     50.877699999999997
C      47.844115000000002     44.382002500000006     49.799799999999998
C      46.262815000000003     50.993402499999995     53.234000000000002
C      49.090915000000010     47.315602500000004     42.294500000000006
C      49.407415000000000     47.623202499999998     52.503400000000006
H      47.436914999999999     50.397602499999998     48.134700000000002
H      49.754415000000009     47.697702499999998     49.199199999999998
H      47.492915000000011     50.255702500000005     45.553400000000003
H      48.461515000000006     49.583602500000005     43.171799999999998
H      49.900215000000003     45.782702500000006     44.652800000000006
H      46.283515000000008     45.458802499999997     48.792600000000000
H      47.891114999999999     45.155902500000003     47.888399999999997
H      45.952415000000002     45.344302500000005     52.367500000000000
H      44.761584999999997     46.797302500000008     52.486399999999996
H      45.229015000000004     46.051902500000004     50.914999999999999
H      49.362315000000009     48.436402500000007     51.797199999999997
H      47.815714999999997     46.388102499999995     53.203499999999998
H      47.676115000000010     52.461483500000007     49.848900000000008
H      49.051614999999998     51.944702499999998     51.042600000000000
H      47.971514999999997     52.591697500000002     51.580199999999998
H      48.944515000000010     44.874802500000008     49.558600000000006
H      47.949315000000013     44.437602500000004     50.789499999999997
H      47.693915000000004     43.408302499999998     49.324700000000000
H      45.941315000000003     50.649402500000001     54.209700000000005
H      46.241815000000003     51.962489100000006     52.835100000000004
H      50.177415000000011     47.339702500000008     41.790299999999995
H      48.753615000000011     48.143702499999996     41.804399999999994
H      48.959614999999999     46.187302500000008     42.214800000000004
H      50.080314999999999     47.799502499999996     53.362000000000002
H      49.819415000000006     46.647402500000005     52.042700000000004
O      51.238415000000003     44.553702500000007     46.549399999999999
