11

C      47.280449999999988     49.154799999999994     47.870349999999988
C      47.777150000000006     47.831499999999998     47.472149999999992
C      48.899450000000002     46.938099999999999     48.431549999999994
H      46.211050000000000     48.953200000000002     48.138449999999999
H      47.789649999999995     49.550300000000000     48.759249999999987
H      46.908649999999994     47.338100000000004     47.122749999999996
H      48.268450000000001     47.931099999999994     46.642649999999996
H      48.850750000000005     45.841900000000003     47.967849999999991
H      49.145750000000007     47.476499999999994     49.357350000000004
H      49.788950000000000     47.176799999999993     47.866349999999997
H      47.402450000000002     50.158099999999997     47.220849999999992
