32

C      48.250949999999996     46.777199999999986     49.314199999999985
C      48.418149999999997     45.956499999999991     50.625799999999998
C      48.897649999999999     49.753299999999989     46.906000000000006
C      49.660150000000002     50.482699999999994     47.850700000000003
C      46.842150000000004     46.432499999999990     48.650899999999993
C      50.734549999999999     48.414699999999982     50.738699999999994
C      48.437650000000005     48.518899999999988     47.481700000000004
C      50.502250000000004     49.842099999999995     48.786000000000001
C      48.960549999999998     47.966499999999982     48.831199999999995
C      50.124449999999996     48.535299999999992     49.399799999999999
C      46.401250000000005     44.944299999999991     49.194699999999997
C      46.979250000000008     46.786999999999992     47.168300000000002
C      47.783850000000001     47.660299999999992     46.480100000000007
C      49.044350000000009     44.369499999999988     50.413400000000010
C      48.773949999999999     45.333599999999990     49.322500000000005
C      47.388450000000006     47.759500000000003     44.832999999999998
C      45.347450000000002     46.143599999999992     49.324200000000005
H      48.272250000000000     46.296299999999995     51.592300000000009
H      48.479950000000002     49.977300000000000     45.735799999999998
H      51.406250000000000     50.316599999999994     49.132700000000000
H      46.875150000000005     44.533999999999992     50.180400000000006
H      46.225050000000003     46.176499999999990     46.547300000000007
H      46.386049999999997     44.274399999999993     48.247799999999998
H      47.843950000000007     48.597399999999993     44.260099999999994
H      48.066350000000000     47.074799999999996     44.338600000000000
H      46.566350000000000     47.118899999999982     44.472999999999999
H      44.593750000000000     45.773499999999991     48.534800000000004
H      44.692550000000004     46.276899999999991     50.430400000000006
H      48.321350000000010     52.610100000000003     47.003100000000003
O      48.987150000000000     43.389899999999997     51.042000000000002
O      51.347850000000008     48.417899999999989     51.739900000000006
S      49.363550000000004     52.435699999999983     48.119799999999998
