46

C      48.097799999999985     46.550249999999991     48.909999999999989
C      47.159799999999990     46.103950000000005     50.058399999999992
C      45.734499999999997     49.644050000000000     48.090299999999999
C      44.374600000000001     49.736750000000008     48.963799999999992
C      47.775300000000001     47.722249999999995     48.096899999999998
C      45.909999999999997     46.836250000000000     50.337699999999998
C      45.970799999999997     51.534849999999999     44.510799999999996
C      44.371299999999991     48.573850000000000     49.988799999999998
C      46.561099999999996     48.434649999999998     48.404499999999999
C      45.650099999999995     47.937550000000009     49.581299999999999
C      49.404499999999999     45.860650000000000     48.835799999999992
C      49.961199999999991     45.132349999999995     49.863900000000001
C      49.045499999999990     44.454850000000000     50.790799999999997
C      47.782799999999995     45.101350000000004     50.919100000000000
C      45.611599999999996     50.645649999999996     47.141899999999993
C      46.531999999999996     51.154850000000003     45.896699999999996
C      44.510399999999990     51.481450000000002     47.533599999999993
C      43.615600000000001     51.012750000000004     48.677399999999999
C      50.274699999999996     46.390049999999995     47.797100000000000
C      51.794299999999993     46.294050000000006     47.624099999999999
C      52.253900000000002     45.355650000000004     48.654699999999998
C      51.418999999999997     44.974650000000004     49.752899999999997
C      48.349299999999999     47.982549999999996     46.728099999999998
C      49.597999999999999     47.052150000000005     46.428399999999996
C      47.295400000000001     47.666649999999997     45.706499999999998
C      44.996899999999997     46.410050000000005     51.543399999999998
H      43.659399999999991     48.162050000000001     50.705799999999996
H      49.427700000000002     43.793950000000002     51.512900000000002
H      47.294899999999998     44.771049999999995     51.805099999999996
H      47.268299999999996     51.865150000000007     46.005099999999999
H      47.341699999999989     50.451050000000002     45.802199999999999
H      44.307099999999991     52.206049999999998     46.738299999999995
H      42.717100000000002     51.495250000000006     49.192300000000003
H      52.442200000000000     45.792350000000006     46.897199999999998
H      53.282899999999998     45.133450000000003     48.733999999999995
H      51.650999999999996     44.094850000000001     50.160100000000000
H      48.507499999999993     48.916649999999997     46.574100000000001
H      49.296499999999995     46.337350000000008     45.477699999999999
H      50.241699999999994     47.797249999999998     46.041100000000000
H      47.403799999999990     46.537150000000004     45.478899999999996
H      46.314200000000000     48.065050000000006     46.014099999999999
H      47.777799999999999     48.295449999999995     44.985799999999998
H      45.055300000000003     45.650550000000003     52.549300000000002
H      43.906899999999993     46.669850000000004     51.467100000000002
H      45.817899999999995     46.739950000000000     52.253499999999995
O      45.668899999999994     51.807850000000009     43.450699999999998
