21

C      48.832892999999999     47.300999999999988     46.724279999999986
C      48.111243000000002     46.236800000000002     45.955680000000001
C      46.778923000000006     46.363000000000000     48.432479999999998
C      47.041962999999996     45.603999999999999     47.041179999999997
C      48.055122999999995     48.310400000000001     47.507379999999998
C      47.249593000000004     47.771500000000003     48.641279999999995
C      48.354692999999997     49.785200000000003     47.497879999999995
C      47.248463000000001     48.478700000000003     49.850642000000001
C      48.102913000000001     50.481700000000004     48.812680000000000
C      47.629163000000005     49.774100000000004     50.033450000000002
H      49.833862999999994     47.847399999999993     46.576179999999994
H      49.486343000000005     46.582099999999997     47.384180000000001
H      47.568483000000001     46.286599999999993     44.994779999999992
H      48.788363000000004     45.405799999999999     45.487379999999987
H      46.166137000000006     45.344700000000003     46.455079999999995
H      46.390668000000005     45.668999999999997     49.094715000000001
H      47.307102999999998     44.445899999999995     47.441579999999988
H      49.048762999999994     50.319400000000002     46.731780000000001
H      46.708403000000004     47.892899999999997     50.459400000000002
H      48.047072999999997     51.554100000000005     48.779679999999999
H      47.553012999999993     50.468299999999999     51.005220000000008
