22

C      50.174849999999992     48.140949999999997     46.137149999999991
C      50.387349999999998     47.190750000000008     47.342550000000003
C      48.652649999999994     48.763149999999996     45.941749999999999
C      49.882850000000005     47.925950000000000     48.571250000000006
C      47.850849999999994     48.885249999999999     47.335150000000013
C      48.600949999999997     48.571150000000003     48.432550000000006
C      46.343050000000005     49.235650000000007     47.501450000000006
C      47.926450000000003     48.605950000000007     49.767750000000007
C      45.594750000000005     49.319850000000002     48.685450000000003
C      46.527050000000003     48.865949999999998     49.789150000000006
H      50.312950000000001     47.583550000000002     45.166850000000011
H      50.937849999999997     48.976849999999999     45.904450000000011
H      49.690049999999999     46.329549999999998     47.382150000000010
H      51.459350000000001     46.796850000000006     47.361550000000008
H      48.505949999999999     49.372850000000000     45.126249999999999
H      47.997950000000003     47.949550000000002     45.725549999999998
H      50.642349999999993     48.720950000000002     48.827250000000006
H      49.923749999999998     47.229349999999997     49.333950000000002
H      45.629050000000007     49.426749999999998     46.665950000000009
H      48.582549999999998     48.564650000000000     50.711849999999998
H      44.540649999999999     49.670450000000002     48.767850000000010
H      46.166950000000000     48.761449999999996     50.873750000000001
