22

C      47.380299999999991     46.123699999999999     48.882199999999990
C      45.848100000000002     47.115700000000004     48.609499999999997
C      48.186600000000013     47.079599999999999     49.580600000000004
C      46.040400000000005     48.382899999999992     47.964799999999997
C      48.649000000000015     48.126800000000003     48.498800000000003
C      47.471900000000005     48.688900000000004     47.799099999999996
C      49.944299999999998     48.703799999999987     47.992699999999999
C      47.624000000000009     49.660200000000003     46.762799999999999
C      50.086600000000004     49.448699999999988     46.738799999999998
C      48.908799999999999     50.054400000000001     46.283400000000000
H      47.856400000000008     45.517200000000003     47.964500000000001
H      47.084400000000002     45.072599999999994     49.259900000000002
H      45.056399999999996     47.476399999999998     49.438000000000002
H      45.284999999999997     46.745699999999999     47.702699999999993
H      49.204900000000009     46.599500000000006     50.059899999999999
H      47.827900000000000     47.398799999999994     50.525000000000006
H      45.687700000000007     48.304800000000000     46.916700000000006
H      45.675300000000007     49.288100000000000     48.542299999999997
H      50.878799999999998     48.887499999999989     48.595399999999998
H      46.560400000000001     49.911500000000004     46.166100000000000
H      50.943600000000004     49.856999999999999     46.458699999999993
H      49.048400000000015     50.927400000000006     45.474999999999994
