13

C      48.499549999999985     47.568749999999987     49.138399999999990
C      48.010750000000002     48.936849999999993     49.073900000000002
C      46.801149999999993     49.266450000000006     48.422899999999998
C      46.280349999999999     48.176249999999996     47.558300000000003
C      46.990349999999992     46.894549999999995     47.275800000000004
C      48.107450000000000     46.604450000000000     48.147300000000001
H      49.495449999999991     47.322649999999996     49.412900000000000
H      46.662449999999993     50.297950000000000     48.442200000000000
H      45.432649999999995     48.231150000000000     46.859700000000004
H      46.897449999999992     46.176749999999998     46.472400000000000
H      48.639949999999999     45.702050000000000     48.066099999999999
H      50.567350000000005     48.886250000000004     49.527600000000000
S      49.677849999999992     49.994049999999994     49.212499999999999
