22

C      47.694849999999988     47.788750000000000     50.179849999999995
C      47.143050000000002     49.430850000000007     50.173650000000002
C      49.123149999999995     47.500050000000002     49.405050000000003
C      47.419550000000001     49.984949999999998     48.661450000000002
C      48.603049999999996     47.774050000000003     47.926749999999998
C      47.614050000000006     48.765050000000002     47.629550000000002
C      48.847750000000005     46.652150000000006     47.002549999999999
C      47.064149999999998     48.520949999999999     46.336050000000000
C      48.039249999999996     46.318750000000001     45.844350000000006
C      46.974850000000004     47.281450000000007     45.535449999999997
H      47.131450000000001     47.244350000000004     49.456650000000003
H      47.648250000000004     47.317150000000005     51.143050000000002
H      47.654449999999997     50.122850000000007     50.833550000000002
H      46.484850000000009     49.432550000000006     50.898550000000000
H      49.413350000000008     46.526350000000001     49.613349999999997
H      49.857150000000004     48.448550000000012     49.291350000000001
H      46.537350000000004     50.490050000000004     48.376249999999999
H      48.256850000000000     50.602649999999997     48.655749999999998
H      49.765349999999998     45.983850000000004     47.059350000000002
H      46.409850000000006     49.310850000000002     46.314650000000000
H      48.118250000000003     45.397350000000003     45.528950000000002
H      46.142849999999996     46.951850000000007     44.856949999999998
