22

C      49.898869999999988     46.821399999999983     49.363569999999989
C      50.569869999999995     48.069000000000003     48.570449999999994
C      48.186869999999999     46.955799999999996     49.469920000000002
C      49.492170000000002     48.930999999999997     47.641119999999994
C      47.555570000000003     47.350999999999999     48.149059999999992
C      48.065770000000001     48.418300000000002     47.178119999999993
C      46.220370000000003     46.779200000000003     47.741839999999996
C      47.213270000000009     49.052300000000002     46.219279999999998
C      45.402270000000001     47.249399999999994     46.652189999999997
C      45.907769999999999     48.471400000000003     46.048709999999993
H      50.309770000000000     46.996799999999993     50.392830000000004
H      50.384870000000006     45.977199999999996     49.408629999999995
H      50.500370000000004     48.771699999999996     49.520219999999995
H      51.675070000000005     48.355199999999996     48.700309999999995
H      47.855270000000004     47.752400000000009     50.216029999999989
H      47.663170000000008     46.225200000000001     49.796529999999997
H      49.191069999999996     50.056200000000004     47.794739999999997
H      50.070670000000007     48.950899999999990     46.649059999999992
H      45.948570000000004     45.943799999999996     48.447579999999995
H      47.783969999999997     49.972299999999990     45.663119999999992
H      44.324929999999995     47.019499999999994     46.431339999999992
H      44.807800000000000     48.731699999999989     45.607169999999996
