22

C      46.933199999999999     48.304149999999993     49.968749999999993
C      45.546099999999996     47.551350000000006     49.138050000000000
C      48.139799999999994     48.026950000000006     49.056550000000001
C      45.944500000000005     47.517850000000003     47.763850000000005
C      47.941800000000001     48.016449999999999     46.350650000000002
C      47.408399999999986     47.889350000000000     47.624850000000002
C      49.223299999999995     48.464850000000006     45.930650000000000
C      49.552899999999994     48.620849999999997     49.401250000000005
C      50.170999999999992     48.935449999999996     46.986850000000004
C      50.342500000000001     49.096350000000008     48.342250000000000
H      46.582800000000006     49.325849999999996     50.048649999999995
H      47.043799999999990     47.808450000000001     51.119950000000003
H      44.658400000000000     48.038750000000000     49.534149999999997
H      45.268100000000004     46.462250000000004     49.432749999999999
H      48.428899999999999     47.170650000000002     49.104050000000001
H      47.376700000000000     47.803249999999998     45.338650000000001
H      45.182100000000005     47.843150000000001     47.060749999999999
H      45.766300000000001     46.608750000000008     47.067450000000001
H      49.220299999999995     48.470350000000003     44.880049999999997
H      49.806799999999996     48.694350000000007     50.420450000000002
H      51.005899999999997     49.537749999999996     46.303449999999998
H      51.341600000000000     49.319949999999999     48.775149999999996
