23

C      49.926499999999990     46.564544999999995     49.512154999999993
C      46.081200000000003     48.178475000000006     46.799075000000002
C      49.677300000000002     46.639015000000001     48.059165000000000
C      50.173399999999994     47.017915000000002     46.846145000000000
C      46.389000000000003     48.434934999999996     48.313854999999997
C      48.756100000000004     47.342375000000004     47.329805000000000
C      47.536500000000004     48.157165000000006     47.335744999999996
C      46.164400000000001     49.806304999999995     48.928154999999997
C      45.001300000000001     47.852114999999998     48.022754999999997
C      50.922300000000000     47.308165000000002     45.526415000000000
C      49.747100000000003     47.697834999999998     50.160535000000003
H      50.044800000000002     45.691235000000006     50.250374999999998
H      45.951400000000000     47.622195000000005     45.879424999999998
H      46.943199999999997     50.308764999999994     48.290275000000001
H      45.182200000000002     49.743894999999995     49.239285000000002
H      46.664700000000003     49.918785000000000     49.911994999999997
H      44.229300000000002     48.469155000000001     48.224944999999998
H      44.954200000000000     46.765895000000000     48.234065000000001
H      50.399099999999997     48.185154999999995     44.969965000000002
H      51.770699999999998     48.093684999999994     45.693795000000001
H      51.271399999999993     46.515015000000005     44.649684999999998
H      49.506100000000004     48.848405000000000     49.788474999999998
H      49.801499999999997     47.653084999999990     51.350315000000002
