5

C      47.850499999999997     48.039744999999996     48.181599999999996
H      48.887600000000006     47.954044999999994     48.809899999999999
H      47.112399999999994     47.825945000000004     47.190100000000001
H      47.317300000000003     47.099855000000005     48.666400000000003
H      47.429599999999994     48.900144999999995     48.461600000000004
