21

C      49.724784999999997     45.845499999999987     48.558169999999990
C      47.729995000000002     46.579999999999998     46.415349999999997
C      49.719395000000006     47.434500000000000     49.035739999999997
C      48.236545000000007     45.895899999999997     47.857209999999995
C      48.860385000000001     48.242300000000000     47.994470000000000
C      47.798905000000005     47.334199999999996     47.842700000000001
C      46.416975000000001     47.837900000000005     47.995699999999999
C      48.438235000000006     49.570999999999998     47.976589999999995
C      46.064055000000003     49.101100000000002     47.496330000000000
C      47.115945000000004     50.182800000000000     47.746629999999996
H      50.405895000000008     45.559699999999992     47.851129999999998
H      49.983865000000002     44.994100000000003     49.498379999999997
H      46.733675000000005     46.205399999999997     46.220551000000000
H      47.591215000000005     44.874799999999993     47.668619999999997
H      50.903934999999997     47.956500000000005     49.249800000000000
H      49.657575000000001     47.641700000000000     50.097739999999995
H      48.551975000000006     46.815799999999996     45.902260000000005
H      45.796275000000001     46.903599999999997     47.897520000000000
H      49.176155000000001     50.358599999999996     47.807620000000000
H      45.096065000000003     49.461900000000000     47.276750000000000
H      46.959325000000007     51.125200000000007     47.441710000000000
