99

C      48.090549999999993     46.376899999999992     47.336799999999997
C      49.402049999999996     50.982399999999984     48.862300000000005
C      51.943850000000005     48.568399999999997     45.224099999999993
C      47.687549999999995     47.554699999999997     48.019999999999996
C      49.302250000000008     46.229399999999998     46.524900000000002
C      48.408149999999999     49.836500000000001     48.902599999999993
C      51.412550000000003     47.330600000000004     45.701799999999992
C      50.349150000000002     51.088799999999992     47.655999999999992
C      51.321350000000002     49.886799999999994     45.482599999999991
C      48.651050000000005     48.811099999999996     48.004899999999992
C      50.109749999999998     47.386599999999987     46.455500000000001
C      50.605049999999999     49.865099999999984     46.743399999999994
C      49.697449999999996     48.766999999999996     46.938099999999991
C      45.942450000000001     45.488399999999999     48.149500000000003
C      45.057750000000006     45.238299999999995     49.464299999999994
C      45.656950000000002     46.528899999999993     49.271099999999990
C      46.490150000000007     47.717799999999997     48.902699999999996
C      46.065549999999995     48.897599999999997     49.451499999999996
C      47.035950000000007     49.976799999999997     49.633899999999997
C      49.195150000000005     52.093599999999995     49.771199999999993
C      49.922450000000005     53.320999999999984     49.281800000000004
C      50.867250000000006     53.427899999999994     48.209099999999992
C      51.125250000000001     52.210700000000003     47.387699999999995
C      47.814950000000003     52.255499999999998     50.351099999999988
C      47.026450000000004     51.077499999999986     50.661400000000000
C      52.519449999999999     48.768900000000002     43.780400000000000
C      52.711350000000003     47.584000000000003     42.956199999999995
C      52.371450000000003     46.085700000000003     43.435299999999998
C      51.735350000000004     46.122000000000000     44.800500000000000
C      51.131650000000000     44.830699999999993     44.957599999999999
C      49.878549999999997     45.103999999999999     45.807199999999995
C      43.684549999999994     43.029100000000000     50.424099999999996
C      45.619949999999996     44.416799999999995     50.577199999999991
C      44.613049999999994     49.067200000000000     50.170800000000000
C      51.259450000000008     54.132599999999996     49.301099999999991
C      52.507349999999995     53.367399999999989     49.879499999999993
C      52.833750000000002     53.441299999999998     51.417400000000001
C      47.344249999999995     45.015299999999996     47.881100000000004
C      44.662450000000000     44.513899999999992     48.082999999999998
C      53.010950000000001     47.559500000000000     41.558300000000003
C      51.199949999999994     55.624700000000004     49.628099999999989
C      51.904550000000008     52.340599999999995     51.777999999999992
C      51.725550000000005     56.151599999999988     51.128999999999991
C      50.370349999999995     54.587399999999988     47.121600000000001
C      45.646049999999995     43.259799999999998     54.391799999999989
C      43.885150000000003     43.651600000000002     54.465899999999991
C      44.333850000000005     43.830399999999997     51.254300000000001
C      42.858349999999994     42.626000000000005     53.784999999999997
C      45.251049999999999     42.213600000000000     53.322400000000002
C      43.902250000000002     41.797600000000003     53.061899999999994
C      43.712250000000004     40.442899999999995     52.905599999999993
C      44.699649999999998     42.465699999999998     51.912599999999998
C      45.192850000000000     39.988699999999994     53.093499999999992
C      46.097749999999998     40.987899999999996     53.394899999999993
H      51.292350000000006     50.868600000000001     44.950699999999998
H      51.810650000000003     52.447899999999990     46.703099999999992
H      52.413050000000005     45.328000000000003     42.675500000000000
H      50.988549999999996     43.857900000000001     44.266800000000003
H      49.555850000000000     43.889200000000002     45.823700000000002
H      42.741149999999998     42.742499999999993     50.318500000000000
H      46.809750000000001     44.026799999999994     50.586199999999991
H      45.544450000000005     44.924599999999998     51.457299999999989
H      44.574850000000005     48.607299999999995     51.143499999999989
H      43.837750000000007     49.758099999999999     50.203299999999999
H      52.578750000000007     52.233099999999993     49.764899999999997
H      53.523550000000007     53.733299999999986     49.225999999999999
H      53.868050000000004     53.118099999999984     51.890799999999999
H      52.357250000000001     54.418499999999995     52.078499999999991
H      47.781050000000000     44.265000000000001     46.959599999999995
H      47.986849999999997     44.799499999999995     48.780100000000004
H      45.039449999999995     43.619500000000002     47.627899999999997
H      43.828849999999996     44.916600000000003     47.601299999999995
H      50.232850000000006     56.118399999999994     49.330099999999987
H      51.626449999999998     56.188799999999986     48.775599999999997
H      52.058650000000007     51.358799999999988     51.324900000000000
H      52.092149999999997     52.114099999999993     52.907299999999992
H      50.865349999999999     52.669799999999995     51.523600000000002
H      50.751449999999998     55.618099999999998     51.713299999999990
H      52.740749999999998     55.962499999999991     51.090999999999994
H      47.703449999999997     53.381000000000000     50.089500000000001
H      51.115450000000003     55.349999999999994     47.111800000000002
H      49.284250000000007     54.836299999999994     47.465599999999995
H      50.052550000000004     53.933399999999992     46.173800000000000
H      51.380050000000004     57.012799999999999     51.688000000000002
H      46.226949999999995     42.808599999999998     55.293099999999995
H      46.195850000000000     44.126899999999992     53.923999999999992
H      43.714250000000000     44.738000000000000     54.306299999999993
H      43.979250000000000     43.726799999999997     55.580399999999997
H      43.488250000000001     44.376199999999997     51.630899999999997
H      43.372350000000004     43.499099999999999     49.439799999999991
H      42.193950000000008     42.086399999999998     54.589399999999998
H      42.131949999999996     43.181699999999992     53.116399999999999
H      42.820950000000003     39.904200000000003     52.666399999999996
H      45.426150000000000     38.987200000000001     52.918300000000002
H      47.063449999999996     40.808799999999991     53.562799999999996
H      44.151750000000000     48.005899999999997     49.499600000000001
O      52.910149999999994     47.432400000000001     40.419600000000003
O      52.606850000000001     49.862099999999998     43.254300000000001
O      46.474150000000002     51.118099999999998     51.705100000000002
