22

C      45.983399999999989     49.516949999999994     47.969749999999998
C      47.233900000000006     49.405750000000012     48.976849999999999
C      46.023799999999994     48.303450000000012     46.991750000000010
C      47.303799999999995     47.915050000000008     49.661250000000010
C      47.213800000000006     47.293150000000011     47.364150000000009
C      48.041800000000009     47.312250000000006     48.545550000000006
C      47.749499999999998     46.443650000000005     46.355650000000011
C      49.141700000000000     46.503150000000005     48.875050000000002
C      49.277300000000011     46.181450000000012     46.445850000000007
C      49.915500000000009     45.995750000000001     47.710050000000010
H      45.044399999999996     49.769650000000013     48.316650000000010
H      46.224099999999993     50.362150000000000     47.274349999999998
H      48.141300000000001     49.883650000000003     48.400550000000010
H      47.081100000000006     50.097850000000008     49.822250000000011
H      45.118799999999993     47.662950000000009     47.090350000000001
H      45.898099999999999     48.523949999999999     45.966450000000009
H      46.322300000000013     47.202650000000006     49.496150000000000
H      47.801199999999994     47.697450000000003     50.548450000000003
H      47.115399999999994     46.648750000000007     45.451549999999997
H      49.578800000000001     46.291650000000004     49.894350000000003
H      49.981700000000004     45.984550000000013     45.593050000000005
H      50.955600000000004     45.637850000000000     47.797049999999999
