20

C      49.446149999999989     46.709949999999992     49.659999999999982
C      48.042049999999996     46.736450000000005     50.173600000000000
C      49.735549999999996     47.987849999999995     48.797499999999992
C      47.477750000000007     46.441249999999997     48.988599999999998
C      48.958149999999996     48.155349999999999     47.555299999999995
C      47.657750000000000     47.371349999999993     47.826000000000001
C      48.996249999999996     49.337149999999994     46.843699999999991
C      46.527449999999995     47.516549999999995     46.866999999999997
C      47.860850000000006     49.418849999999992     45.966699999999996
C      46.629849999999998     48.560649999999995     45.836499999999994
H      50.010349999999995     46.669749999999993     50.655999999999999
H      49.551750000000006     45.932050000000004     48.933599999999991
H      47.923549999999999     46.057649999999995     50.948399999999999
H      47.696649999999998     47.718850000000003     50.620899999999999
H      50.283549999999998     48.744549999999990     49.222000000000001
H      46.400050000000000     46.447549999999993     49.025699999999993
H      49.905650000000001     50.067949999999996     46.746499999999990
H      45.716450000000002     46.725949999999997     46.987499999999990
H      48.442950000000003     50.041749999999993     45.354799999999990
H      46.025250000000007     48.941749999999999     45.051600000000001
