21

C      47.120921999999986     45.767699999999991     48.690549999999988
C      46.520622000000003     47.810100000000006     48.327649999999991
C      48.211321999999996     45.970100000000002     47.660749999999993
C      45.884121999999991     46.355300000000000     48.055749999999989
C      48.803522000000001     47.458900000000000     47.310549999999992
C      47.671021999999994     48.283000000000001     47.828049999999990
C      49.994022000000001     48.011300000000006     46.799149999999997
C      47.914822000000001     49.664900000000003     47.717050000000000
C      50.063022000000004     49.426000000000002     46.603349999999992
C      49.078322000000000     50.353099999999998     47.160749999999993
H      46.974521999999993     44.717100000000002     49.032550000000001
H      47.475321999999991     46.172200000000004     49.662450000000007
H      45.842922000000002     48.500200000000007     48.757849999999991
H      47.975421999999995     45.410799999999995     46.720950000000002
H      49.196221999999992     45.333399999999997     47.974649999999997
H      45.030422000000002     46.253799999999998     48.759949999999989
H      45.497221999999994     45.738900000000001     47.143249999999995
H      50.861871000000008     47.464399999999998     46.445949999999996
H      46.873521999999994     49.988100000000003     48.088349999999991
H      50.969577999999998     50.039400000000001     46.337549999999993
H      49.493021999999996     51.282899999999998     47.286049999999989
