5

C      47.976249999999993     48.069399999999995     48.065899999999992
H      47.245449999999998     48.925899999999999     47.968800000000002
H      47.619750000000003     47.074100000000001     48.275499999999994
H      48.421250000000001     47.706900000000005     47.115400000000001
H      48.754550000000002     48.389200000000002     48.884599999999999
