22

C      47.256199999999993     46.802999999999990     50.230849999999982
C      48.733200000000004     46.933599999999998     50.474850000000004
C      46.653399999999998     48.065400000000011     49.710749999999990
C      49.608200000000004     47.124399999999994     48.987150000000000
C      47.288199999999996     48.201300000000003     48.192250000000001
C      48.556300000000000     47.653599999999997     47.962350000000001
C      46.656900000000000     48.966800000000006     47.160950000000000
C      48.826299999999996     48.097200000000001     46.551149999999993
C      46.916599999999995     49.398300000000006     45.792649999999995
C      48.234999999999992     48.763900000000007     45.415449999999993
H      47.123299999999993     46.100099999999998     49.530349999999999
H      46.793399999999998     46.445799999999998     51.163849999999996
H      49.136999999999993     45.949900000000000     50.864049999999992
H      48.912399999999998     47.554299999999998     51.473849999999999
H      45.603800000000000     47.746200000000002     49.720649999999992
H      47.205800000000004     49.019199999999998     50.285349999999994
H      50.006599999999999     46.165500000000002     48.794649999999990
H      50.396200000000000     47.924900000000001     49.185850000000002
H      46.059300000000000     49.716099999999997     47.835849999999994
H      49.618000000000002     47.663100000000000     46.037649999999999
H      46.294800000000002     50.050100000000000     45.043149999999997
H      48.586800000000004     48.249000000000009     44.526150000000001
