22

C      47.690949999999994     47.927884999999989     45.426199999999994
C      48.327550000000002     46.460814999999997     45.687300000000000
C      48.535049999999998     49.047935000000010     46.283499999999997
C      48.169850000000011     45.948785000000001     47.188600000000001
C      48.270350000000008     48.558625000000006     47.769299999999994
C      48.116349999999997     47.161555000000007     48.191799999999994
C      48.410650000000004     49.478375000000014     48.935099999999998
C      47.767949999999999     46.975385000000003     49.543799999999997
C      48.140450000000001     49.373485000000002     50.289200000000001
C      47.964250000000007     47.936685000000011     50.599499999999999
H      46.523449999999997     47.800295000000006     45.316399999999994
H      47.605249999999998     48.276895000000010     44.350500000000004
H      49.388150000000010     46.657825000000003     45.433500000000002
H      47.882150000000010     45.856724999999997     44.962200000000003
H      48.276850000000010     50.069495000000003     45.912799999999997
H      49.476550000000003     48.965135000000004     46.082500000000003
H      46.954650000000001     45.564345000000003     47.377699999999997
H      48.970250000000007     45.623964999999998     47.677399999999999
H      48.255150000000000     50.435654999999997     48.531699999999994
H      47.657250000000005     45.895634999999999     49.754299999999994
H      48.327849999999998     50.178854999999999     50.961300000000001
H      48.092650000000006     47.543935000000005     51.649499999999996
