6

C      48.373049999999992     47.880849999999988     48.552599999999998
C      47.511350000000000     48.223050000000001     47.498300000000008
H      47.926349999999999     47.307350000000000     49.323699999999995
H      49.452550000000002     48.155249999999995     48.665600000000005
H      46.547449999999998     47.914850000000001     47.204600000000006
H      48.064550000000004     48.692650000000000     46.676300000000005
