22

C      49.694949999999992     48.615599999999986     46.833027019999975
C      50.364850000000004     48.600700000000003     48.346014999999994
C      48.639450000000004     47.524199999999993     46.275584999999992
C      49.649250000000002     47.285499999999999     49.151554999999988
C      47.658350000000006     47.312100000000001     47.507745999999983
C      48.323050000000002     47.187100000000001     48.776994999999985
C      46.237250000000003     47.463999999999999     47.190806999999992
C      47.300450000000005     47.255399999999995     49.836904999999987
C      45.468650000000004     47.278300000000002     48.434105000000002
C      45.901150000000001     47.125500000000002     49.789414999999991
H      50.294249999999998     48.414599999999993     46.075884999999985
H      49.234650000000002     49.582800000000006     46.606984999999995
H      50.317650000000008     49.445700000000002     48.903434999999988
H      51.556249999999999     48.393000000000001     48.378014999999991
H      48.783650000000002     46.417199999999994     46.020285000000001
H      47.942550000000004     47.760199999999998     45.273185000000012
H      50.398250000000004     46.498499999999993     48.775624999999991
H      49.844249999999995     47.296000000000006     50.221744999999984
H      45.731050000000003     47.574399999999997     46.204184999999981
H      47.787550000000003     47.387199999999993     50.677714999999992
H      44.443750000000001     47.376599999999996     48.038894999999997
H      45.363050000000001     47.015299999999996     50.726814999999988
