22

C      47.310699999999997     48.799315999999990     49.764749999999992
C      46.126800000000003     47.760746000000005     49.582249999999995
C      49.667299999999997     47.499796000000003     49.681149999999995
C      46.843100000000007     46.644006000000005     48.833649999999999
C      48.626599999999996     48.324186000000005     48.924250000000001
C      48.305400000000006     47.080886000000000     48.343150000000001
C      49.239000000000004     49.302585999999998     48.135050000000000
C      48.556899999999999     46.834786000000001     46.866750000000003
C      49.362300000000005     49.295706000000003     46.725249999999996
C      49.073999999999998     47.959986000000001     46.070850000000000
H      46.954599999999999     49.672946000000003     49.092250000000000
H      47.361800000000002     49.285705999999998     50.838850000000001
H      45.402299999999997     47.381515999999998     50.367950000000000
H      45.555999999999997     48.375366000000000     48.652949999999997
H      50.597700000000003     47.020085999999999     49.419149999999995
H      49.519699999999986     47.177626000000004     50.721250000000005
H      46.475200000000001     45.743963999999998     48.901150000000001
H      46.301500000000004     47.027546000000001     47.867849999999997
H      49.505300000000005     50.256036000000002     48.742049999999999
H      48.460499999999996     45.866028000000000     46.546650000000000
H      49.831500000000005     50.237276000000001     46.308950000000003
H      49.403999999999996     47.655625999999998     45.161149999999999
