5

C      47.920699999999997     48.113049999999994     48.082344999999989
H      47.022600000000004     48.509450000000001     48.760255000000001
H      48.061200000000007     48.752449999999996     47.239744999999999
H      48.977399999999996     47.962649999999996     48.017645000000002
H      47.369099999999996     47.247550000000004     47.936205000000001
