5

C      47.944949999999992     47.908949999999990     47.951649999999994
H      48.438350000000000     47.174150000000004     48.905349999999999
H      48.766350000000003     47.862349999999999     47.373750000000001
H      47.233649999999997     47.863049999999994     47.094650000000001
H      47.906050000000008     48.825849999999996     48.402850000000001
