20

C      46.235749999999989     46.037299999999988     48.087399999999995
C      46.516249999999999     45.506099999999996     46.759799999999998
C      46.485950000000003     47.347899999999996     48.843699999999998
C      45.834049999999998     49.868299999999998     48.120000000000005
C      47.508049999999997     48.103099999999998     48.020300000000006
C      47.156149999999997     49.523199999999996     47.975400000000000
C      48.890349999999998     47.620999999999988     47.582700000000003
C      48.233850000000004     50.512899999999995     47.835400000000000
C      49.851450000000000     48.799500000000002     47.545900000000003
C      49.549449999999993     50.212599999999988     47.546400000000006
H      46.472549999999998     46.898099999999992     49.904899999999998
H      46.679950000000005     46.228400000000001     46.095100000000002
H      46.579949999999997     44.417499999999997     46.548100000000005
H      45.921250000000001     45.568299999999994     49.035399999999996
H      45.025649999999999     49.127899999999997     48.213200000000001
H      45.295149999999992     51.001899999999999     48.338999999999999
H      49.425550000000001     46.603400000000001     47.882700000000000
H      48.042850000000001     51.582500000000003     47.939900000000002
H      50.974350000000001     48.856699999999996     47.277100000000004
H      50.346149999999994     50.924499999999995     47.610799999999998
