22

C      46.809829999999991     49.833899999999993     48.394799999999989
C      45.402329999999999     46.152900000000002     47.097900000000003
C      47.194029999999991     48.246299999999998     46.504699999999993
C      46.317529999999998     47.381900000000002     47.217899999999993
C      48.480330000000002     48.032499999999999     48.637099999999997
C      47.124829999999996     48.272500000000001     48.109699999999997
C      49.713629999999988     48.726100000000002     48.272699999999993
C      48.822730000000000     47.287500000000001     49.829699999999995
C      50.724229999999999     48.208799999999997     49.187999999999995
C      50.211029999999994     47.098399999999998     49.997799999999991
H      45.804029999999997     49.889000000000010     48.185699999999990
H      46.017029999999998     45.461900000000000     46.429399999999994
H      47.097829999999995     50.538100000000000     47.574099999999994
H      45.148729999999993     45.497300000000003     48.112999999999992
H      46.893529999999991     50.086300000000001     49.465200000000003
H      46.667129999999993     48.296999999999997     45.469799999999999
H      44.244769999999995     46.336500000000001     46.829599999999992
H      48.147229999999993     48.493000000000002     46.027200000000001
H      49.897529999999996     49.686399999999999     47.741899999999994
H      48.192029999999995     46.651600000000002     50.271999999999998
H      51.755230000000005     48.436100000000003     48.862599999999993
H      50.768629999999995     46.410899999999998     50.530200000000001
