22

C      48.312349999999995     49.441449999999989     45.561399999999985
C      47.927949999999996     50.084350000000001     47.022800000000004
C      48.880849999999995     47.915450000000007     45.992000000000004
C      46.671949999999995     49.289649999999995     47.707499999999996
C      48.428650000000005     47.416950000000000     47.459500000000006
C      47.442549999999997     48.046549999999996     48.233599999999996
C      49.025449999999992     46.151049999999998     47.723299999999995
C      47.462649999999996     47.527749999999997     49.676299999999998
C      49.100549999999998     45.876649999999998     49.214399999999998
C      48.215450000000004     46.348250000000007     50.299599999999998
H      48.873750000000001     50.040450000000007     44.814300000000003
H      47.085949999999997     49.355649999999997     44.767700000000005
H      48.826249999999987     50.220650000000006     47.768699999999995
H      47.685150000000007     51.029449999999997     46.955399999999997
H      49.123950000000008     47.072150000000008     45.154799999999994
H      50.044849999999997     47.859549999999999     45.966200000000001
H      45.955150000000003     49.787850000000006     48.305599999999998
H      46.152550000000005     48.780749999999998     47.001099999999994
H      49.992449999999991     45.750850000000000     47.037199999999999
H      46.585449999999994     47.627449999999996     50.256000000000000
H      49.414549999999991     44.970550000000003     49.765199999999993
H      47.666250000000005     45.837750000000000     51.232299999999995
