22

C      47.400449999999992     49.640005000000002     49.851699999999994
C      46.252949999999998     48.607315000000000     49.428699999999999
C      48.858550000000001     48.934665000000010     49.318700000000000
C      46.884050000000002     47.118825000000001     49.221699999999998
C      48.649949999999997     48.206125000000000     48.061599999999999
C      47.886449999999996     47.046045000000007     47.971100000000000
C      49.739550000000001     48.278805000000006     47.080500000000001
C      48.068449999999991     45.929675000000003     47.101199999999999
C      49.753549999999997     47.306195000000002     46.076300000000003
C      49.097049999999989     46.013375000000011     46.026200000000003
H      47.456449999999997     49.618615000000005     50.892600000000002
H      47.254049999999999     50.763314999999992     49.450299999999999
H      45.964250000000000     49.110955000000004     48.443300000000001
H      45.273949999999999     48.286574999999999     50.059500000000007
H      49.025149999999989     48.325765000000004     50.253999999999998
H      49.716950000000004     49.738775000000004     49.274999999999999
H      47.194350000000000     46.519565000000000     50.204900000000002
H      45.774149999999999     46.740515000000002     49.233100000000000
H      50.427450000000000     49.171975000000003     47.150700000000001
H      47.322449999999996     45.237774999999999     47.154200000000003
H      50.726050000000001     47.405965000000009     45.107399999999998
H      49.556049999999999     45.236685000000008     45.371099999999998
