22

C      47.768099999999990     45.891944499999987     46.451749999999990
C      46.440169999999995     46.130244499999989     46.961550000000003
C      48.605690000000010     47.200444499999989     46.653850000000006
C      46.237569999999991     47.005444499999996     48.405650000000009
C      48.650229999999993     48.227344500000001     47.893950000000004
C      47.372799999999998     48.028644499999999     48.500150000000005
C      49.824619999999996     48.951244500000001     48.403550000000010
C      47.154470000000003     49.285944499999999     49.344750000000005
C      49.535220000000010     50.182544499999992     49.218249999999998
C      48.180880000000002     50.255244499999989     49.831550000000007
H      48.288910000000001     45.202944500000001     47.040050000000008
H      47.575140000000005     45.578444499999989     45.247749999999996
H      45.940410000000000     46.736444499999990     46.213650000000001
H      45.752651999999998     45.143344499999998     47.005050000000011
H      49.789549999999991     47.125844499999999     46.529449999999997
H      48.176940000000002     47.448344499999990     45.647350000000003
H      45.083110000000005     47.047844499999997     48.619250000000008
H      46.087260000000001     46.193944500000001     49.232849999999999
H      50.916889999999995     48.600744499999990     47.994150000000005
H      46.589579999999998     49.518844500000000     50.211150000000004
H      50.338160000000002     50.697749500000000     49.597149999999999
H      48.029510000000002     50.856655500000002     50.752250000000004
