23

C      46.732349999999990     48.598549999999989     51.226299999999995
C      47.217349999999996     49.939749999999997     50.481400000000001
C      47.198849999999993     47.520649999999996     50.057300000000005
C      47.505449999999996     49.631149999999998     48.907200000000003
C      47.878149999999991     48.326649999999994     48.852200000000003
C      48.442049999999995     48.037549999999996     47.563100000000006
C      49.577249999999992     47.056049999999999     47.207500000000003
C      47.677849999999992     47.404449999999997     45.065700000000007
C      49.463550000000005     46.089050000000000     46.127800000000001
C      48.693449999999999     46.448650000000001     44.974600000000002
C      47.874349999999993     48.315649999999998     46.279400000000003
H      47.121749999999992     48.373249999999999     52.072899999999997
H      45.664349999999999     48.633850000000002     51.244499999999995
H      46.462649999999996     50.624950000000005     50.501800000000003
H      48.091149999999999     50.326749999999997     50.956000000000003
H      47.886150000000001     46.791249999999998     50.298100000000005
H      46.210250000000002     46.786549999999998     49.715100000000007
H      47.555149999999998     50.391349999999996     48.141000000000005
H      50.335650000000001     46.743350000000000     47.860900000000001
H      47.487150000000000     47.717549999999996     44.058100000000003
H      50.129150000000010     45.375049999999995     45.981500000000004
H      48.862750000000005     46.007449999999999     43.927100000000003
O      47.544150000000002     49.481749999999998     46.278500000000001
