122

C      50.762459999999983     51.974149999999987     42.185049999999990
C      51.710359999999994     51.233349999999994     41.341950000000004
C      46.504539999999992     47.443519999999992     43.557849999999995
C      46.584059999999994     45.919589999999992     43.851849999999992
C      49.275759999999991     51.782649999999990     42.397150000000003
C      50.982259999999997     50.278579999999991     40.758050000000004
C      47.629059999999996     48.255599999999994     43.027750000000005
C      47.803959999999996     45.079419999999992     43.726350000000004
C      47.791259999999994     49.742809999999992     42.944749999999992
C      49.848759999999999     48.166689999999996     42.154850000000003
C      48.704259999999991     50.259829999999994     41.987349999999999
C      49.888159999999992     49.515019999999993     41.590650000000004
C      48.866059999999990     47.466279999999990     42.827049999999993
C      48.847759999999994     45.978809999999996     42.854549999999996
C      51.231259999999992     53.255349999999993     42.928049999999992
C      52.625959999999992     53.590949999999992     43.107250000000001
C      53.364859999999993     53.044149999999988     41.898049999999991
C      52.974059999999994     51.850249999999988     41.080350000000003
C      45.602609999999999     47.952369999999995     44.559449999999991
C      44.575029999999998     47.331159999999990     45.229649999999999
C      44.551449999999996     45.978849999999994     44.687649999999998
C      45.388949999999994     45.030329999999992     43.963249999999995
C      48.324859999999994     51.421549999999996     41.094549999999991
C      48.810459999999992     53.029550000000000     43.476549999999996
C      50.060959999999994     53.530149999999992     43.991449999999993
C      49.534559999999992     45.163189999999993     41.999450000000003
C      47.701359999999994     52.941949999999991     44.407750000000000
C      44.913329999999995     43.536659999999991     43.985250000000001
C      45.461799999999997     50.880309999999994     50.959049999999998
C      45.475409999999997     52.297449999999998     51.331349999999993
C      46.429089999999995     53.406649999999992     50.997250000000001
C      47.675959999999996     52.100749999999991     46.019649999999992
C      46.316409999999991     50.478739999999995     49.973949999999995
C      47.525359999999992     53.066649999999996     50.004649999999991
C      47.982959999999991     52.830249999999992     47.172649999999997
C      48.991559999999993     51.629949999999994     46.720250000000000
C      47.063959999999994     51.628649999999993     49.517850000000003
C      47.793859999999995     52.608249999999998     48.660450000000004
C      44.380479999999991     52.776449999999997     52.223949999999995
C      44.408769999999997     54.240549999999999     52.723149999999997
C      45.307809999999996     55.226950000000002     52.232750000000003
C      46.350359999999995     54.843749999999993     51.343249999999991
C      43.284709999999997     52.260349999999988     53.042949999999998
C      42.831049999999991     53.112949999999998     54.202649999999998
C      41.989369999999994     54.129149999999996     54.058749999999996
C      43.476289999999992     54.431649999999991     53.781550000000003
C      47.081659999999992     56.096549999999993     50.625449999999994
C      49.227459999999994     50.054859999999991     46.328949999999999
C      41.776549999999993     52.336849999999991     54.811850000000000
C      53.144759999999991     43.065629999999992     49.286349999999992
C      51.825559999999996     42.397529999999989     48.829950000000004
C      48.838259999999991     46.490779999999994     46.083549999999995
C      53.002259999999993     44.498399999999990     49.710249999999995
C      49.673459999999992     47.677879999999995     46.406249999999993
C      50.576659999999997     43.051169999999992     48.563749999999992
C      49.533759999999994     45.261029999999991     46.440049999999992
C      52.479059999999997     46.859659999999991     48.814850000000000
C      51.392859999999999     47.711629999999992     48.371549999999992
C      52.096459999999993     45.368269999999995     49.024849999999994
C      50.246859999999998     47.092789999999994     47.605849999999997
C      50.928259999999995     44.529809999999991     48.491350000000004
C      50.363659999999996     45.672869999999989     47.770049999999991
C      54.276060000000001     42.150119999999994     49.613350000000004
C      54.068859999999994     40.754849999999998     49.698249999999994
C      52.775059999999996     40.073449999999994     49.460249999999995
C      51.684359999999998     40.999650000000003     49.301049999999996
C      49.651059999999994     42.659499999999994     47.401049999999991
C      48.840659999999993     43.933059999999990     46.490450000000003
C      50.257659999999994     48.985709999999990     45.965449999999997
C      50.765859999999996     45.073239999999991     45.491250000000001
H      51.549759999999992     49.713549999999991     40.116650000000000
H      47.779659999999993     44.047239999999995     43.799249999999994
H      47.014059999999994     50.452079999999995     43.158449999999995
H      53.030059999999992     53.807049999999990     44.258949999999992
H      54.417859999999990     53.408450000000002     41.697949999999999
H      53.755859999999998     51.354649999999992     40.466450000000002
H      45.591909999999999     49.032389999999992     44.769249999999992
H      43.850169999999991     47.831389999999992     45.833849999999991
H      43.533609999999996     45.638619999999989     44.993149999999993
H      48.907259999999994     51.094749999999991     40.233950000000000
H      47.195259999999990     51.281449999999992     41.077149999999996
H      48.751559999999998     53.778749999999988     42.635150000000003
H      50.008259999999993     54.588049999999996     44.037849999999999
H      50.298859999999991     53.143949999999990     45.024650000000001
H      47.572059999999993     54.066449999999989     44.987450000000003
H      46.713059999999999     52.754049999999992     43.785049999999991
H      43.968049999999991     43.607429999999994     44.766649999999991
H      45.727329999999995     42.918039999999991     44.211149999999996
H      44.794129999999996     49.961969999999994     51.403950000000002
H      50.796459999999996     47.643019999999993     42.155449999999995
H      47.129559999999998     51.264749999999992     45.866449999999993
H      46.369689999999991     49.366469999999993     49.426749999999991
H      48.428659999999994     53.708049999999986     47.030049999999996
H      49.959059999999994     51.857849999999992     46.948550000000004
H      44.797749999999994     56.157049999999984     52.614849999999997
H      43.324699999999993     51.150149999999996     53.040550000000003
H      41.945779999999992     55.125849999999986     54.937649999999998
H      48.140559999999994     49.597869999999993     46.028649999999992
H      48.797959999999996     49.553439999999995     47.192249999999994
H      40.695239999999998     52.539649999999995     54.640149999999998
H      42.020209999999992     52.096049999999991     55.883350000000000
H      53.809359999999998     44.955649999999991     50.167049999999996
H      47.907259999999994     46.590319999999991     45.414849999999994
H      53.226159999999993     47.407449999999990     49.324750000000002
H      51.326459999999997     48.731459999999991     48.388550000000002
H      55.304760000000002     42.470799999999990     50.037749999999996
H      55.125559999999993     40.340750000000000     50.164849999999994
H      52.655159999999995     38.973350000000011     49.515049999999995
H      50.804559999999995     40.359550000000006     49.152750000000005
H      48.907159999999990     41.678116999999993     47.513749999999995
H      50.517659999999992     42.393169999999991     46.830949999999994
H      47.677759999999992     43.990289999999995     46.603749999999998
H      48.711059999999996     43.722509999999993     45.327750000000002
H      51.131759999999993     49.259039999999992     46.632649999999991
H      50.550259999999994     49.282469999999989     44.714649999999999
H      50.624959999999994     44.235179999999993     44.752050000000004
H      51.603859999999997     45.061829999999993     46.203550000000000
H      51.253459999999990     46.032769999999992     44.792650000000002
H      44.043489999999991     43.094159999999995     43.217449999999992
H      49.863659999999996     43.139359999999996     49.528249999999993
O      49.821059999999996     44.326229999999995     41.335950000000004
O      47.529659999999993     57.026649999999989     50.205750000000002
