22

C      48.789924999999997     48.425899999999999     50.450034999999993
C      47.663924999999999     49.642299999999999     50.109335000000002
C      48.326425000000000     47.004500000000000     49.932034999999999
C      47.146724999999996     49.871500000000005     48.544804999999997
C      47.865724999999998     47.366899999999994     48.647485000000003
C      47.413024999999998     48.496400000000001     47.818425000000005
C      48.260525000000001     46.269500000000001     47.670765000000003
C      47.750025000000001     48.574199999999998     46.413395000000001
C      48.076425000000000     46.178800000000003     46.358595000000001
C      48.104624999999999     47.413199999999996     45.565335000000005
H      49.731524999999998     48.478699999999996     49.698234999999997
H      49.117125000000009     48.341600000000007     51.543635000000002
H      47.991425000000000     50.568800000000003     50.478835000000004
H      46.793884999999996     49.631999999999998     50.810434999999998
H      49.241025000000000     46.361499999999999     49.891535000000005
H      47.521225000000001     46.804099999999998     50.673635000000004
H      46.268475000000002     50.492100000000001     48.244795000000003
H      47.906725000000002     50.562599999999996     47.831955000000001
H      48.520625000000003     45.474399999999996     48.277185000000003
H      47.816524999999999     49.449700000000000     45.877105000000000
H      48.406124999999996     45.431199999999997     45.674534999999999
H      48.457924999999996     47.312800000000003     44.456364999999998
