16

C      49.909499999999994     48.168199999999992     49.501699999999992
C      46.900900000000000     47.086600000000004     49.420500000000004
C      48.830700000000000     48.311599999999999     48.566600000000001
C      47.378899999999994     48.209000000000003     48.760100000000001
C      49.025399999999998     48.892899999999997     47.247300000000003
C      46.352299999999993     49.244299999999996     48.371700000000004
C      47.783899999999996     49.104900000000001     46.513500000000001
C      46.400699999999993     49.382400000000004     46.892400000000002
H      50.084700000000005     47.794699999999992     50.484800000000000
H      50.587700000000005     48.991100000000003     49.750500000000002
H      45.775200000000005     46.931899999999999     49.550200000000004
H      47.461899999999993     46.442099999999996     49.762900000000002
H      50.026800000000001     49.209000000000003     46.692200000000000
H      45.412299999999995     49.415899999999993     48.870400000000004
H      47.859500000000004     49.423699999999997     45.515200000000000
H      45.509200000000000     49.557900000000004     46.283400000000000
