146

C      53.807449999999996     49.918599999999998     47.732899999999987
C      52.433149999999998     50.192300000000003     47.117199999999997
C      54.003649999999993     53.586299999999994     46.394999999999996
C      54.782330999999999     51.396500000000003     48.000799999999998
C      52.043849999999992     51.507099999999994     46.655000000000001
C      55.209976000000005     49.993700000000004     47.473100000000002
C      54.185549999999992     52.491699999999994     47.266899999999993
C      52.846049999999991     52.760300000000001     46.875600000000006
C      54.450036300000008     48.633700000000005     47.514700000000005
C      53.521050000000002     47.476199999999992     47.570099999999996
C      51.976549999999989     47.691699999999997     47.412999999999997
C      51.533249999999995     49.062799999999996     46.849699999999999
C      56.005570000000006     52.807699999999997     50.035700000000006
C      54.883076000000003     52.202199999999991     50.834099999999992
C      54.535148000000007     52.850700000000003     52.072299999999998
C      55.200328000000013     51.599800000000002     49.642899999999983
C      55.115391000000002     50.584500000000006     50.851599999999991
C      53.485249999999994     46.812700000000007     46.190500000000000
C      51.030949999999990     46.722999999999999     46.925299999999993
C      49.144350000000003     48.388800000000003     46.686499999999995
C      50.062150000000003     49.465800000000002     46.854200000000006
C      50.559649999999991     51.889899999999997     46.867000000000004
C      49.577649999999991     50.830100000000002     46.980999999999995
C      55.394360000000006     53.843699999999998     52.547399999999996
C      54.243849999999995     54.899500000000003     45.439899999999994
C      50.064849999999993     53.268699999999995     47.052400000000006
C      49.177049999999994     54.091700000000003     47.682299999999998
C      38.367549999999994     46.851100000000002     41.636600000000001
C      52.875850000000000     43.484300000000005     49.233299999999986
C      51.792149999999992     43.221900000000005     50.210599999999985
C      55.695140000000002     43.473700000000008     52.060999999999993
C      54.359749999999984     43.898600000000002     49.428399999999982
C      51.736149999999995     42.831099999999992     51.659399999999991
C      54.154249999999983     43.188500000000005     51.943099999999987
C      52.991249999999994     42.431500000000000     54.033699999999996
C      54.884934000000001     43.527199999999993     50.853999999999985
C      52.864449999999991     42.800100000000000     52.483699999999985
C      52.667249999999996     43.432800000000000     47.805099999999996
C      51.295149999999992     42.993899999999996     47.482299999999995
C      50.191449999999989     42.445000000000007     48.378399999999999
C      50.538649999999990     42.578099999999992     49.712800000000001
C      54.835195000000006     44.174800000000005     46.697500000000005
C      53.366349999999997     43.959500000000006     46.597200000000001
C      51.534449999999993     43.609899999999996     45.087199999999996
C      50.658149999999992     42.991900000000001     46.056600000000003
C      55.413920000000005     44.112799999999993     48.138099999999994
C      54.754313000000003     45.347600000000000     48.976799999999997
C      49.188449999999989     41.815799999999996     47.436400000000006
C      48.087449999999990     41.805899999999994     50.662899999999993
C      49.459849999999989     42.209800000000001     50.879899999999992
C      49.401649999999989     42.373699999999999     46.048000000000002
C      47.930149999999998     41.320099999999996     47.874799999999993
C      50.355149999999995     42.402699999999996     51.949799999999996
C      47.700049999999990     41.379400000000004     49.354399999999998
C      55.805239999999998     46.103499999999997     49.626399999999990
C      46.136949999999999     41.239599999999996     49.593699999999998
C      53.887949999999989     41.753500000000003     54.906300000000002
C      45.672049999999999     40.863320000000002     51.252899999999997
C      56.477130000000002     44.628200000000007     52.512599999999992
C      55.789800000000000     44.468699999999998     45.683899999999994
C      52.924250000000001     44.063000000000002     45.172299999999993
C      57.290980000000005     53.373999999999995     50.366600000000005
C      43.260049999999993     46.439700000000002     42.113100000000003
C      42.666649999999990     45.550300000000007     43.478300000000004
C      50.323449999999994     46.802300000000002     43.705200000000005
C      46.897750000000002     44.204800000000006     47.135099999999994
C      44.601549999999989     47.104299999999995     42.126800000000003
C      49.618150000000000     47.026399999999995     46.663700000000006
C      48.192349999999990     44.743099999999998     46.903800000000004
C      43.709449999999990     45.261700000000005     44.481899999999996
C      45.847449999999995     44.855599999999995     46.442499999999995
C      46.658450000000002     47.325800000000001     43.316400000000002
C      48.572749999999999     46.051600000000008     46.284899999999993
C      45.340350000000001     46.964900000000000     43.317300000000003
C      47.861849999999990     47.131500000000003     44.041799999999995
C      44.977750000000000     46.138300000000001     44.453199999999995
C      46.121849999999995     45.925500000000000     45.402500000000003
C      47.502249999999989     46.427400000000006     45.329499999999996
C      43.570849999999993     44.391999999999996     45.591800000000006
C      44.713549999999998     43.990200000000002     46.299599999999998
C      41.178550000000001     45.608100000000007     43.039400000000001
C      41.014550000000000     46.759900000000002     42.029499999999999
C      40.661749999999998     44.301499999999990     42.578800000000001
C      41.286249999999995     44.494099999999989     43.818899999999999
C      40.850650000000002     44.207000000000008     45.184799999999996
C      42.149249999999995     43.768200000000007     45.935699999999997
C      42.268249999999995     46.593899999999991     41.133899999999997
C      40.214249999999993     45.585000000000008     45.753100000000003
C      43.597149999999999     47.228700000000003     40.955500000000001
H      41.035550000000001     47.818299999999994     42.588600000000000
H      56.253690000000006     49.788700000000006     47.922199999999989
H      53.753249999999994     52.801400000000001     52.897099999999995
H      56.091880000000003     50.282600000000002     51.442599999999999
H      54.338949999999997     49.977199999999996     51.090999999999994
H      51.293349999999990     45.504999999999995     46.818799999999996
H      47.903349999999989     48.279100000000000     46.682000000000002
H      48.620649999999998     51.140900000000002     47.043800000000005
H      50.933049999999994     53.700899999999990     46.602099999999993
H      49.567949999999996     55.112600000000000     47.559100000000001
H      48.227949999999993     53.891300000000001     48.121299999999991
H      37.700749999999999     47.808599999999998     41.347999999999999
H      56.215050000000005     44.730000000000004     53.708999999999989
H      52.190849999999998     42.588700000000003     54.646799999999999
H      51.377749999999992     43.613799999999998     44.024799999999999
H      56.421970000000002     44.365099999999998     47.475899999999996
H      47.586050000000000     41.415000000000006     51.518299999999996
H      49.815049999999999     42.155200000000008     52.982699999999994
H      47.012249999999995     41.213099999999997     47.392099999999999
H      45.730750000000000     42.426900000000003     49.576700000000002
H      45.496549999999999     40.908630000000002     48.626400000000004
H      53.831249999999997     41.821100000000001     55.987499999999997
H      54.811619000000007     41.251999999999995     54.832699999999988
H      45.027149999999992     41.796700000000001     51.417599999999993
H      44.970649999999992     40.133499999999998     51.403199999999998
H      46.407349999999994     40.707960000000000     52.090699999999984
H      56.074150000000003     45.576599999999999     51.987999999999985
H      57.411670000000001     44.625000000000000     52.126300000000001
H      48.907649999999990     42.367599999999996     45.087299999999999
H      56.727970000000013     45.215100000000007     45.896199999999993
H      55.589150000000004     44.731499999999997     44.718599999999995
H      53.398349999999994     44.473900000000000     44.279600000000002
H      38.176249999999996     46.440700000000007     42.660899999999998
H      53.719449999999995     55.866500000000002     45.358599999999996
H      48.828850000000003     47.930199999999999     42.260700000000000
H      46.760750000000002     43.468999999999994     47.884000000000000
H      48.860950000000003     44.071300000000008     47.275199999999998
H      46.445949999999996     48.304599999999994     42.787899999999993
H      44.782449999999997     43.129700000000000     47.073899999999995
H      39.470050000000001     44.212000000000003     42.380700000000004
H      40.155649999999994     43.379800000000003     45.258399999999995
H      42.440749999999994     42.648600000000002     45.485500000000002
H      42.103349999999992     43.806200000000004     47.017499999999998
H      40.243549999999999     46.413899999999998     45.028700000000001
H      39.273249999999990     45.146499999999989     45.773099999999999
H      40.725650000000002     46.000100000000003     46.557800000000000
H      44.263549999999995     46.578100000000006     40.012500000000003
H      52.583449999999999     45.876999999999995     48.904399999999995
N      53.569049999999990     46.335999999999999     48.769199999999998
N      49.075649999999996     47.345900000000000     43.311199999999999
O      56.209369999999993     54.577399999999997     52.906099999999995
O      55.406370000000010     54.979599999999991     45.300299999999993
O      53.380049999999997     46.582499999999996     45.140799999999999
O      39.468549999999993     46.856899999999996     41.094600000000000
O      56.906690000000012     46.298599999999993     49.872000000000000
O      58.299250000000001     53.810999999999993     50.595899999999986
O      51.331949999999992     46.417800000000000     44.116900000000001
