22

C      46.112299999999991     47.970749999999995     48.723049999999994
C      45.698699999999995     48.189650000000000     47.195549999999997
C      47.964499999999994     49.680149999999998     47.075350000000000
C      46.194099999999999     49.742249999999999     47.012250000000009
C      47.690500000000007     47.500150000000005     48.619250000000008
C      48.585200000000000     48.445450000000008     47.778750000000002
C      48.091999999999999     46.226950000000002     49.286650000000009
C      50.023199999999996     48.221249999999998     47.623750000000001
C      49.563899999999997     46.180750000000003     49.120750000000001
C      50.447800000000008     47.003950000000003     48.331350000000000
H      45.781399999999998     48.686949999999996     49.291650000000004
H      45.486100000000000     47.030050000000003     49.008750000000006
H      46.261000000000003     47.423850000000002     46.561149999999998
H      44.453600000000002     48.037350000000004     46.946250000000006
H      48.335100000000004     50.491150000000005     47.681950000000001
H      48.360099999999996     50.084550000000007     46.066850000000002
H      46.123600000000003     50.357950000000002     46.202950000000001
H      45.797800000000002     50.482949999999988     47.727150000000009
H      47.785899999999991     45.589849999999998     49.933149999999998
H      50.698100000000004     48.836649999999992     47.135050000000007
H      50.127699999999997     45.508849999999995     49.714750000000009
H      51.546399999999998     46.779550000000000     48.134850000000000
