21

C      49.618049999999997     48.762999999999991     45.809999999999995
C      48.439649999999993     49.477399999999996     46.046199999999999
C      49.917849999999994     48.164600000000000     47.423000000000002
C      47.406849999999999     48.821399999999997     46.697299999999998
C      48.682049999999997     47.911799999999999     48.367500000000007
C      47.288450000000005     47.910199999999996     47.949500000000000
C      48.895450000000004     47.918500000000002     49.725000000000009
C      46.194949999999999     47.313200000000002     48.741800000000012
C      48.007250000000006     46.918999999999997     50.414900000000003
C      46.702850000000005     46.527999999999999     49.836800000000004
H      50.460950000000004     49.381800000000005     45.383200000000002
H      49.528150000000004     47.866399999999999     45.022900000000007
H      48.973250000000000     50.082799999999999     46.802500000000009
H      47.676250000000003     49.690800000000003     44.926800000000000
H      50.744149999999998     47.377299999999998     47.623000000000005
H      50.537550000000003     48.855899999999998     47.946100000000001
H      46.399949999999997     48.921299999999995     46.434100000000001
H      49.981450000000002     47.939000000000000     50.061300000000003
H      45.255850000000002     47.517199999999995     48.448099999999997
H      48.520350000000001     46.371499999999997     51.073200000000000
H      45.989650000000005     45.917200000000001     50.292800000000000
