6

C      47.844949999999990     48.537049999999994     48.512449999999994
C      48.023449999999997     47.268549999999998     47.756450000000001
H      48.713449999999995     49.278749999999995     48.767949999999999
H      47.014650000000003     49.000350000000005     48.576049999999995
H      47.177850000000007     46.721250000000005     47.429150000000000
H      48.985349999999997     47.231249999999996     47.232050000000001
