17

C      46.155090999999985     48.504649999999998     46.135584999999992
C      47.877591000000002     49.253349999999998     48.480135000000004
C      46.980490999999994     48.565550000000002     47.539545000000004
C      47.825791000000002     47.604349999999997     48.205624999999998
C      47.768090999999991     46.903750000000002     49.454975000000005
C      48.831791000000003     47.215550000000007     47.301304999999999
C      49.107690999999996     46.399050000000003     49.488624999999999
C      49.671270000000014     46.309550000000002     48.179535000000001
H      45.527990999999993     47.655349999999999     45.752835000000005
H      45.635090999999996     49.394849999999991     46.046464999999998
H      48.704490999999997     48.701949999999997     48.948975000000004
H      47.971490999999993     50.408249999999995     48.508065000000002
H      47.045891000000005     47.105249999999998     50.385604999999998
H      49.040191000000000     47.381050000000002     46.235955000000004
H      49.721735000000002     45.958750000000009     50.500815000000003
H      50.472009000000007     45.591750000000005     47.721265000000002
H      47.065491000000002     48.379950000000008     45.499184999999997
