5

C      48.223299999999988     48.216699999999989     47.900449999999999
H      47.285100000000000     48.146299999999997     48.473749999999995
H      48.714900000000000     48.443300000000001     48.960049999999995
H      48.659999999999997     47.182499999999997     47.573750000000004
H      48.140599999999992     48.817500000000003     47.039950000000005
