22

C      48.249780000000001     50.608849999999997     47.824699999999993
C      48.103980000000007     50.135350000000003     46.356400000000008
C      48.579059999999998     49.503350000000005     48.824900000000014
C      47.219020000000000     48.795850000000002     46.339700000000008
C      47.904219999999995     48.106450000000002     48.642600000000002
C      47.511380000000003     47.735650000000007     47.370000000000005
C      48.051130000000001     47.043350000000004     49.713900000000010
C      46.966329999999999     46.425650000000005     47.257000000000005
C      47.230649999999997     45.838250000000002     49.842600000000004
C      46.950919999999996     45.495050000000006     48.393700000000010
H      47.407309999999995     51.084350000000001     48.020200000000003
H      49.192490000000006     51.431550000000001     47.822000000000003
H      47.650840000000002     50.840249999999997     45.718500000000006
H      48.840220000000002     50.169850000000004     45.581500000000005
H      48.570620000000005     49.874650000000003     49.830600000000004
H      49.637299999999996     49.069350000000000     48.316100000000006
H      47.413700000000006     48.518150000000006     45.186999999999998
H      46.362700000000004     49.265350000000005     46.013500000000008
H      48.648460000000000     47.114750000000001     50.779000000000011
H      46.629580000000004     45.605950000000007     46.516800000000003
H      47.179519999999997     45.317950000000003     50.813000000000002
H      46.617680000000007     44.568449999999999     48.225400000000008
