5

C      47.851699999999987     47.988099999999989     47.765549999999998
H      47.575599999999994     48.743100000000005     46.908850000000001
H      47.064499999999995     47.256899999999995     47.753650000000000
H      48.935500000000005     47.776199999999996     47.498650000000005
H      47.651199999999996     48.657000000000004     49.091149999999999
