22

C      48.985500000000002     50.377949999999998     49.351699999999994
C      47.714799999999997     50.691649999999996     48.485099999999996
C      49.153899999999993     48.928849999999997     49.787500000000001
C      47.043000000000006     49.545850000000002     47.582400000000000
C      48.756200000000007     48.035250000000005     48.584200000000003
C      47.671000000000006     48.307950000000005     47.570200000000000
C      49.165399999999991     46.667150000000007     48.534300000000002
C      47.260400000000004     47.503850000000000     46.573399999999999
C      48.593699999999998     45.637550000000005     47.683700000000002
C      47.762500000000003     46.101950000000002     46.594799999999999
H      49.201200000000000     51.054849999999988     50.451100000000004
H      49.773300000000006     50.678049999999999     48.679700000000004
H      48.174599999999998     51.241249999999994     47.917400000000001
H      47.021299999999997     51.174349999999990     49.196100000000001
H      50.090099999999993     48.704650000000001     50.376200000000004
H      48.314000000000007     49.045950000000005     50.413699999999999
H      46.906300000000002     49.745249999999999     46.688800000000001
H      45.909900000000007     49.787050000000008     47.922300000000000
H      49.898600000000002     46.293350000000004     49.539300000000004
H      46.831299999999999     47.865350000000007     45.548899999999996
H      49.219999999999999     44.758750000000006     47.802299999999995
H      47.526200000000003     45.505150000000000     45.707799999999999
