22

C      45.778199999999991     49.454999999999998     47.022099999999995
C      45.398600000000002     48.073499999999996     46.344399999999993
C      46.897900000000007     48.334500000000006     46.641599999999997
C      46.787700000000001     48.405299999999997     49.861300000000000
C      47.908000000000001     47.758899999999997     48.942800000000005
C      47.948999999999998     47.707099999999997     47.457499999999996
C      48.710700000000003     46.730999999999995     49.512200000000007
C      48.873100000000008     46.959699999999998     46.713400000000007
C      49.927800000000005     46.129400000000004     48.802700000000002
C      49.917600000000007     46.221000000000004     47.406399999999991
H      45.256100000000004     50.323800000000006     46.555800000000005
H      45.603099999999998     49.539100000000005     48.109300000000005
H      45.185299999999998     47.152900000000002     46.921899999999994
H      45.850800000000007     48.083100000000002     45.206000000000003
H      47.411600000000007     48.519499999999994     45.636899999999997
H      45.816699999999997     48.241299999999995     49.596299999999999
H      46.842700000000008     49.885999999999996     50.156199999999998
H      46.930000000000007     48.051100000000005     50.793999999999997
H      48.531700000000001     46.489300000000000     50.675899999999999
H      48.970100000000002     46.953299999999999     45.637400000000000
H      50.814700000000002     45.676199999999994     49.378999999999991
H      50.655799999999999     45.713400000000007     46.786100000000005
