8

C      47.421364999999987     46.438699999999990     48.079250000000002
C      48.277353000000005     48.893000000000001     48.306150000000002
C      47.441164999999998     47.764700000000005     47.987549999999999
H      46.623265000000004     45.971800000000002     47.526550000000000
H      49.376734999999996     48.929900000000004     48.625249999999994
H      47.866064999999992     50.028199999999998     48.079149999999998
H      46.633165000000005     48.225600000000000     47.374750000000006
H      48.332471000000012     46.061900000000009     48.563649999999996
