22

C      46.397299999999987     45.797749999999994     47.433349999999997
C      47.861999999999995     45.544449999999998     47.464250000000007
C      46.165399999999998     47.205750000000002     47.858050000000006
C      48.858399999999996     46.101549999999996     48.652150000000006
C      47.313699999999997     48.120849999999997     48.544349999999994
C      48.679899999999996     47.638449999999999     48.671149999999997
C      46.983499999999999     49.555949999999996     48.371549999999999
C      49.830499999999994     48.433450000000001     48.673450000000003
C      48.193499999999993     50.467649999999999     48.747850000000000
C      49.510999999999996     49.910249999999998     48.560950000000005
H      45.925799999999995     45.023350000000001     48.031450000000007
H      45.857299999999995     45.961449999999999     46.231049999999996
H      47.930600000000005     44.435949999999998     47.508849999999995
H      48.211599999999997     45.906450000000000     46.643550000000005
H      45.149099999999997     47.299650000000000     48.267049999999998
H      46.130899999999997     47.611550000000001     46.806049999999999
H      48.689299999999996     45.537149999999997     49.768950000000004
H      49.893999999999998     45.821049999999993     48.550550000000001
H      45.957999999999998     49.982850000000006     48.526849999999996
H      50.850900000000003     47.988050000000001     48.842650000000006
H      48.140099999999997     51.564050000000002     48.719049999999996
H      50.508599999999994     50.184249999999999     48.257249999999999
