22

C      50.167299999999997     48.831099999999992     46.601529999999990
C      49.037900000000000     48.794100000000000     45.616223999999995
C      49.866199999999999     48.230399999999996     48.001829999999998
C      47.572000000000003     49.036300000000004     46.510459999999995
C      48.351000000000006     48.122300000000003     48.444159999999997
C      47.168300000000002     48.062199999999997     47.665059999999997
C      48.343499999999999     47.478100000000005     49.751179999999998
C      45.931600000000003     47.468600000000002     48.350319999999996
C      47.235900000000008     46.713299999999997     50.316789999999997
C      46.046100000000003     46.881300000000003     49.526830000000004
H      50.403700000000008     49.873700000000007     47.209299999999999
H      51.095700000000001     48.604800000000004     46.160029999999999
H      48.764100000000006     47.901299999999999     45.060890000000015
H      49.023299999999999     49.706499999999998     44.931490000000004
H      50.343200000000003     48.891699999999993     48.644639999999995
H      50.343800000000009     47.409900000000000     48.208759999999998
H      46.793900000000001     48.644799999999996     45.932538000000001
H      47.630600000000008     50.103500000000004     46.961969999999994
H      49.334600000000002     47.376600000000003     50.248739999999998
H      44.904299999999999     47.628200000000000     47.936499999999995
H      47.296700000000008     45.896499999999996     51.068509999999996
H      45.143400000000007     46.426099999999998     49.886609999999990
