21

C      47.426704999999998     49.560049999999990     45.866899999999987
C      46.954745000000003     46.210249999999995     45.497999999999998
C      48.942354999999992     48.981949999999998     45.909999999999997
C      47.982084999999998     46.595849999999999     46.482299999999988
C      47.956805000000003     48.945749999999997     47.153900000000000
C      47.847265000000007     47.658049999999996     47.632799999999996
C      48.173524999999998     49.830750000000002     48.353400000000001
C      47.968874999999997     47.038049999999998     48.827099999999994
C      48.431494999999998     49.228349999999999     49.620700000000006
C      48.301275000000004     47.825350000000000     49.987399999999994
H      47.263864999999996     50.560350000000007     45.772099999999995
H      46.923424999999995     48.929849999999995     45.193899999999999
H      46.728935000000007     45.250250000000001     45.090599999999995
H      49.106264999999993     48.110149999999997     45.107699999999994
H      49.724914999999996     49.562049999999999     45.065300000000001
H      48.793604999999999     46.006349999999998     46.257200000000005
H      46.275085000000004     46.940049999999999     45.349999999999994
H      48.443915000000004     50.749749999999999     48.096799999999995
H      47.992345000000000     45.888449999999999     48.773399999999988
H      48.518744999999996     49.863250000000001     50.426199999999987
H      48.669635000000000     47.287649999999999     50.934699999999999
