50

C      50.323229999999995     45.729349999999997     48.562299999999993
C      49.669770000000000     44.762350000000005     47.629000000000005
C      50.739190000000001     52.416450000000005     45.433199999999999
C      51.711790000000001     51.709750000000007     44.627800000000008
C      49.703370000000000     47.033149999999999     49.090099999999993
C      49.946170000000002     45.901450000000004     47.014600000000002
C      50.024499999999996     51.632150000000003     46.485600000000005
C      51.375579999999999     50.327650000000006     44.932900000000004
C      49.303019999999997     49.567850000000014     47.878399999999999
C      50.641230000000000     47.931250000000006     45.528000000000006
C      49.571899999999999     48.089250000000007     48.017899999999997
C      50.223440000000004     47.401150000000008     46.821600000000004
C      49.874730000000000     50.152750000000005     46.721100000000007
C      50.628940000000000     49.348950000000009     45.678100000000001
C      47.450640000000000     44.472950000000004     47.532700000000006
C      48.546070000000000     43.690950000000008     47.797200000000004
C      50.857650000000000     44.922550000000008     49.541700000000006
C      48.670549999999999     47.342350000000003     50.117999999999995
C      45.687109999999997     45.365150000000007     50.382999999999996
C      45.964460000000003     44.669650000000004     47.881399999999999
C      45.806919999999998     46.919050000000006     50.277699999999996
C      47.210250000000002     47.675450000000005     50.004000000000005
C      45.025950000000002     45.048350000000006     48.918700000000001
C      45.611289999999997     45.394250000000007     46.623500000000007
C      45.161040000000000     43.401450000000004     48.131100000000004
C      46.263500000000001     47.551050000000004     51.423699999999997
H      51.006180000000008     53.445349999999998     45.280400000000000
H      51.878990000000009     51.999550000000006     43.712000000000003
H      51.720829999999999     45.516450000000006     50.241199999999992
H      49.434179999999998     52.357150000000011     46.825200000000009
H      52.079659999999997     49.944450000000010     44.220799999999997
H      48.871920000000003     50.230650000000004     48.605699999999999
H      50.988579999999992     47.327750000000002     44.526499999999999
H      48.425260000000002     42.710450000000002     48.309500000000000
H      51.549360000000000     44.169850000000004     48.913399999999996
H      48.584840000000000     46.433450000000001     50.766700000000000
H      46.592930000000003     44.583350000000003     50.655199999999994
H      45.395460000000000     45.317550000000004     51.539500000000004
H      44.986460000000001     47.583350000000003     49.925399999999996
H      46.811599999999999     48.762450000000008     49.415199999999999
H      47.492739999999998     45.531150000000004     47.217100000000002
H      43.920340000000003     45.258950000000006     48.784899999999993
H      50.155529999999999     44.355050000000006     50.281400000000005
H      44.832770000000004     46.142950000000006     46.847400000000007
H      45.167619999999999     44.650450000000006     45.923800000000000
H      46.425350000000002     46.070650000000008     46.294600000000003
H      45.930570000000003     42.554650000000002     48.035600000000002
H      44.204099999999997     43.261750000000006     47.847600000000000
H      46.791139999999999     47.085550000000005     52.287999999999997
H      45.560360000000003     48.411450000000009     51.552400000000006
