22

C      48.786229999999989     46.385849999999991     47.203299999999992
C      50.157899999999998     47.042049999999996     48.173900000000003
C      47.359300000000005     47.054849999999995     49.067700000000002
C      49.534179999999992     48.400449999999999     48.754100000000008
C      47.645749999999992     47.160249999999998     47.496899999999997
C      48.023560000000003     48.324149999999996     48.305099999999996
C      46.441980000000001     47.059449999999998     46.738700000000009
C      47.481949999999998     49.661650000000002     47.805800000000005
C      45.855580000000003     48.411250000000003     46.343100000000007
C      46.288079999999994     49.591850000000001     47.073899999999995
H      48.878579999999999     46.821849999999998     46.296199999999999
H      48.515469999999993     45.295650000000002     46.946100000000001
H      50.614540000000005     46.430349999999997     49.018299999999996
H      51.164230000000003     47.256650000000000     47.485200000000006
H      46.320059999999998     46.843649999999997     49.258099999999999
H      48.072299999999998     46.943549999999995     49.939099999999996
H      50.046620000000004     49.272149999999996     48.227599999999995
H      49.678929999999994     48.430150000000005     49.938000000000002
H      46.554569999999998     45.893949999999997     46.685800000000000
H      47.874719999999996     50.704349999999998     48.080500000000001
H      44.835769999999997     48.550249999999998     46.060900000000004
H      45.804869999999994     50.556449999999998     47.136099999999999
