17

C      49.197599999999994     47.229899999999994     46.437474999999992
C      48.549900000000001     47.722400000000000     49.853755000000000
C      48.376100000000001     46.845700000000001     47.382745000000007
C      47.111299999999993     47.407699999999998     47.582045000000001
C      47.888900000000000     46.656199999999998     48.744244999999999
C      46.931999999999995     48.761400000000002     46.948985000000000
C      49.088799999999999     48.706200000000003     46.090795000000000
C      47.807499999999997     49.289300000000004     45.935385000000004
H      48.077899999999993     48.816199999999995     49.767765000000004
H      49.702700000000000     49.584499999999998     46.456425000000003
H      50.049900000000001     46.692100000000003     46.726734999999998
H      48.184099999999994     47.703900000000004     50.897565000000000
H      49.431199999999997     48.389499999999998     49.996474999999997
H      47.636199999999995     45.654600000000002     49.039225000000009
H      45.950099999999999     49.285100000000000     47.048305000000006
H      49.704099999999990     48.740200000000002     45.102435000000000
H      47.543299999999995     50.345399999999998     45.889575000000001
