32

C      51.257899999999992     50.499699999999990     45.432449999999996
C      46.688800000000001     46.998699999999999     47.940650000000005
C      46.648799999999994     45.204699999999995     49.652550000000005
C      49.376099999999994     48.732799999999997     48.812750000000008
C      46.903000000000006     46.641300000000001     49.329850000000008
C      48.525700000000001     48.974499999999999     47.948549999999997
C      47.212199999999996     48.348099999999995     47.142250000000004
C      46.261800000000008     49.493899999999996     47.024150000000006
C      47.101799999999997     47.770800000000001     50.400149999999996
C      46.831999999999994     49.303500000000000     49.922349999999994
C      48.366699999999994     49.734000000000002     49.367850000000004
C      49.861999999999995     48.677399999999999     47.116550000000004
C      46.705399999999997     45.570900000000002     48.333349999999996
C      50.430400000000006     49.786899999999996     46.431150000000002
H      44.281700000000001     50.247399999999999     46.249849999999995
H      44.407399999999996     48.212299999999999     46.195850000000007
H      45.283699999999996     51.397100000000002     47.305750000000003
H      51.718299999999999     50.024499999999996     44.495350000000002
H      46.173900000000003     44.602899999999998     50.257050000000007
H      50.219099999999997     48.590100000000000     49.551749999999998
H      46.641400000000004     47.736899999999999     51.504649999999998
H      48.095200000000006     47.649600000000000     50.482349999999997
H      46.408500000000004     49.003999999999998     49.016450000000006
H      46.318200000000004     50.008299999999998     50.476450000000000
H      48.808300000000003     50.698399999999999     49.730649999999997
H      47.146600000000007     47.731000000000002     46.073149999999998
H      49.948999999999998     47.525500000000001     46.778149999999997
H      45.589500000000001     45.379500000000000     47.832549999999998
H      45.226700000000008     49.561700000000002     44.922750000000001
N      46.303799999999995     50.654299999999999     47.551349999999999
N      45.041899999999998     49.204099999999997     46.071449999999999
O      51.104299999999995     50.935099999999998     46.634650000000008
