27

C      48.146999999999998     48.529349999999994     47.578999999999986
C      49.424899999999994     47.758150000000008     47.520799999999994
C      46.938699999999997     49.021850000000008     46.932099999999991
C      51.132400000000004     48.821949999999994     49.375499999999988
C      47.786199999999994     49.049250000000008     49.016499999999994
C      49.977400000000003     48.164750000000005     48.996199999999988
C      51.024000000000001     47.406749999999995     49.465399999999988
C      45.806200000000004     49.446750000000002     47.702900000000000
C      46.293800000000005     49.154050000000005     49.132399999999990
C      50.135199999999998     46.949850000000005     46.731299999999990
C      48.572999999999993     48.355650000000004     50.092299999999994
C      47.222700000000003     49.813949999999998     45.698699999999988
C      44.652699999999996     48.542049999999996     48.229599999999991
C      46.365099999999998     50.413249999999998     46.796499999999995
H      52.203500000000005     45.864049999999999     50.425699999999992
H      51.334099999999992     49.878350000000005     49.437999999999988
H      48.337199999999996     50.005150000000008     48.991399999999999
H      48.561300000000003     47.353349999999999     50.188499999999991
H      46.777400000000000     49.670449999999995     44.771400000000000
H      48.110299999999995     50.537950000000002     45.511699999999990
H      44.378600000000006     47.699649999999998     47.565500000000000
H      43.796499999999995     49.071149999999996     48.602699999999999
H      45.992300000000000     49.633249999999997     49.995399999999989
H      48.940100000000001     48.945450000000001     51.228600000000000
H      50.398399999999995     45.462049999999998     49.880199999999988
N      51.367400000000004     46.009549999999997     49.713600000000000
O      50.746499999999997     46.038850000000004     46.371699999999990
