69

C      54.715899999999991     52.525249999999993     52.441954999999993
C      55.467700000000001     52.069950000000006     51.255515000000003
C      42.308299999999996     45.033850000000001     49.015154999999993
C      52.478400000000001     48.340150000000008     46.594854999999995
C      43.171999999999990     44.452050000000000     49.921804999999992
C      51.472000000000001     48.861750000000001     45.576449999999994
C      42.815099999999994     46.006249999999994     48.001315000000005
C      52.519699999999993     48.446550000000002     48.085705000000004
C      44.556300000000000     44.751350000000002     49.956395000000001
C      50.129699999999993     48.669049999999999     46.197554999999994
C      50.942299999999996     48.139650000000003     49.962814999999992
C      49.510899999999999     47.805549999999997     50.390394999999998
C      44.750299999999989     47.576149999999998     47.302745000000002
C      46.176299999999991     47.355750000000000     47.568095000000000
C      44.086199999999998     46.615250000000003     48.131284999999991
C      51.037100000000002     48.325649999999996     48.545864999999992
C      48.278699999999994     47.508750000000006     49.487965000000003
C      45.055399999999999     45.894250000000000     49.101415000000003
C      49.864699999999992     48.197050000000004     47.506195000000005
C      47.411299999999990     47.728350000000006     47.028305000000003
C      46.358299999999993     46.573549999999997     48.977164999999999
C      48.523699999999998     47.774249999999995     48.037824999999998
C      40.878299999999989     44.873850000000004     49.115735000000001
C      40.344699999999996     44.547250000000005     50.445354999999992
C      41.210400000000000     43.939750000000004     51.453185000000005
C      42.669899999999991     44.148449999999997     51.196474999999992
C      53.409500000000001     47.612449999999995     45.768374999999992
C      53.620399999999997     47.484849999999994     44.302675000000022
C      52.904199999999996     48.429349999999999     43.520775000000015
C      51.598599999999998     48.966350000000006     44.171774999999982
C      52.090499999999999     47.993650000000002     50.894954999999996
C      51.902699999999989     47.374750000000006     52.132424999999998
C      50.567599999999992     46.886350000000007     52.568114999999992
C      49.399600000000000     47.313850000000002     51.806905000000000
C      53.615800000000000     48.402950000000004     50.771824999999993
C      53.629500000000000     48.462249999999997     49.077134999999998
C      47.427199999999992     48.357450000000000     45.774505000000005
C      54.104300000000002     49.920349999999999     51.288794999999993
C      55.546699999999994     50.552250000000001     51.745584999999991
C      52.993800000000000     49.852850000000004     48.497675000000001
H      54.935899999999997     52.092050000000000     50.225314999999995
H      56.405299999999990     52.508949999999999     51.324235000000002
H      42.682399999999994     46.429349999999999     46.945075000000003
H      45.256299999999989     44.318049999999999     50.722134999999994
H      49.579599999999992     48.678150000000002     45.273644000000004
H      44.351899999999993     48.196150000000003     46.511224999999996
H      47.036399999999993     46.831750000000000     51.070655000000002
H      40.377800000000001     45.287850000000006     48.304665000000000
H      39.354599999999998     44.127250000000004     50.516295000000000
H      40.754199999999990     43.074950000000001     51.991844999999998
H      43.281799999999997     43.873549999999994     52.086124999999996
H      54.344799999999999     47.368650000000002     46.186605000000000
H      54.386800000000001     46.908450000000002     43.742275000000006
H      53.099299999999992     48.510350000000003     42.426375000000007
H      50.509099999999997     48.921949999999995     43.777475000000010
H      52.844599999999993     47.072649999999996     52.732105000000004
H      50.451799999999999     46.212649999999996     53.573624999999993
H      48.774699999999989     46.674450000000007     52.440694999999991
H      54.331699999999991     47.545249999999996     51.135144999999994
H      54.708899999999993     48.234150000000000     48.751535000000004
H      53.751699999999992     50.504850000000005     50.501674999999992
H      53.466699999999996     50.259650000000008     52.156674999999993
H      56.645400000000002     50.271650000000008     51.369124999999997
H      55.231899999999989     50.121549999999999     52.758204999999990
H      53.529399999999988     50.166150000000002     47.583645000000004
H      52.169499999999992     50.350049999999996     48.876255000000000
N      47.204099999999990     46.949050000000000     50.029584999999997
O      54.208300000000001     52.925049999999999     53.347314999999995
O      47.545600000000000     49.163849999999996     45.045672999999994
