22

C      48.103349999999992     45.803849999999990     46.866649999999993
C      47.172449999999998     45.673949999999991     48.272050000000000
C      48.346850000000003     47.154150000000001     46.096049999999998
C      48.118849999999995     46.473649999999992     49.043450000000000
C      48.970749999999995     48.052849999999992     47.201349999999998
C      48.775750000000002     47.814449999999994     48.692349999999998
C      49.379149999999996     49.420450000000002     46.989250000000006
C      49.232150000000004     48.768549999999991     49.726750000000003
C      49.748750000000001     50.369649999999993     47.918950000000002
C      49.823850000000007     49.960949999999997     49.345950000000002
H      47.983249999999998     44.784849999999992     46.159550000000003
H      49.057749999999999     45.510649999999998     46.849449999999997
H      46.990949999999998     44.637450000000001     48.432250000000003
H      46.141149999999996     46.374949999999998     48.108250000000005
H      49.142550000000000     46.984749999999991     45.288950000000000
H      47.537549999999996     47.664949999999990     45.529649999999997
H      47.701650000000001     46.279449999999997     50.131449999999994
H      49.102249999999998     46.021850000000001     49.285550000000001
H      49.345550000000003     50.026249999999990     46.004150000000003
H      48.883650000000003     48.680149999999998     50.711050000000000
H      49.858850000000004     51.362549999999999     47.647050000000000
H      49.854150000000004     50.609650000000002     50.258549999999993
