22

C      48.606249999999996     48.156949999999988     45.455449999999992
C      47.992950000000008     46.437149999999995     45.741950000000003
C      48.389450000000004     49.120350000000002     46.709649999999996
C      48.519250000000000     46.561850000000000     47.149150000000006
C      47.595450000000000     48.517849999999996     47.975250000000003
C      47.746949999999998     47.086149999999996     48.307450000000003
C      47.043250000000000     49.434849999999997     48.851950000000002
C      47.061350000000004     46.664649999999995     49.560550000000006
C      46.738450000000000     48.992350000000002     50.242649999999998
C      46.686550000000004     47.628450000000001     50.595849999999999
H      48.729150000000004     48.633849999999995     44.400350000000003
H      49.702050000000000     48.117949999999993     45.423250000000003
H      46.866849999999999     46.300749999999994     45.754949999999994
H      48.518150000000006     45.913849999999996     45.103349999999999
H      48.005650000000003     50.045950000000005     46.441749999999999
H      49.294250000000005     49.177549999999997     47.165449999999993
H      49.679650000000009     46.765149999999998     47.237750000000005
H      48.866450000000000     45.536349999999999     47.478149999999999
H      47.027550000000005     50.463650000000001     48.562250000000006
H      47.050150000000002     45.617649999999998     50.057249999999996
H      46.297950000000000     49.628349999999998     51.039550000000006
H      46.367850000000004     47.361350000000002     51.599649999999997
