5

C      48.108749999999986     47.715444999999988     48.075599999999994
H      48.147749999999995     47.323945000000002     47.107999999999997
H      48.374150000000007     48.676054999999998     47.418500000000002
H      47.171349999999997     47.683774999999997     48.504100000000001
H      48.828650000000003     47.403075000000001     48.892000000000003
