5

C      48.399499999999989     48.573199999999986     47.613199999999992
C      47.247599999999998     47.835700000000003     47.939499999999995
H      46.615299999999998     48.218099999999993     48.759399999999999
H      47.750999999999998     46.984499999999997     48.040600000000012
O      49.384700000000002     49.015500000000003     47.240600000000001
