68

C      51.991099999999996     44.369549999999990     46.748544999999993
C      51.345399999999998     43.346750000000000     47.623645000000010
C      50.550400000000003     44.196849999999998     46.645544999999998
C      51.085999999999999     42.855249999999998     49.162145000000010
C      49.096299999999999     44.695650000000001     46.939245000000000
C      50.010899999999999     50.693849999999998     47.870345000000000
C      45.897199999999998     45.299650000000000     45.775545000000008
C      49.243499999999997     49.832450000000009     48.856445000000008
C      45.484200000000001     46.345650000000006     46.656445000000005
C      47.181600000000003     45.072850000000003     45.238945000000001
C      47.277700000000003     48.466050000000010     49.383345000000006
C      50.202399999999997     47.268950000000004     45.743745000000004
C      46.296999999999997     47.719850000000008     48.625045000000000
C      49.370199999999997     46.216149999999999     45.072344999999999
C      48.417900000000003     48.621549999999999     48.422245000000004
C      50.047800000000002     48.312750000000008     46.719245000000001
C      46.578200000000002     46.973250000000007     47.315444999999997
C      48.351500000000001     45.734450000000010     46.072445000000002
C      48.900300000000001     48.003450000000001     47.368845000000007
C      48.089700000000001     46.844850000000008     46.958845000000011
C      49.698999999999998     52.149349999999998     48.113345000000010
C      50.728000000000002     51.681250000000006     49.082445000000007
C      50.084800000000001     51.484750000000005     50.466345000000004
C      49.234499999999997     50.460850000000008     50.203445000000002
C      48.145899999999997     49.861649999999997     51.142745000000005
C      47.214700000000001     48.977750000000000     50.835145000000011
C      45.014299999999999     44.255350000000007     45.380544999999998
C      43.552500000000002     44.333449999999999     45.614345000000000
C      43.165199999999999     45.422950000000000     46.487845000000007
C      44.061000000000000     46.482749999999996     47.049145000000010
C      43.964199999999998     47.891249999999999     46.833444999999998
C      42.576300000000003     48.355249999999998     46.845545000000001
C      50.680700000000002     46.786250000000010     44.677554999999998
C      44.916800000000002     47.574650000000005     49.437145000000001
C      48.244799999999998     50.123950000000008     52.735845000000012
C      51.346800000000002     52.883250000000004     48.726444999999998
H      51.577300000000001     49.798050000000003     46.495244999999997
H      50.228800000000000     50.583750000000009     45.692545000000010
H      53.570599999999999     44.042349999999999     45.302945000000008
H      52.107999999999990     47.768650000000008     43.696984999999998
H      50.427799999999998     42.008049999999997     49.356245000000001
H      51.934600000000003     42.529949999999999     49.795344999999998
H      50.430900000000001     43.413750000000007     49.758745000000005
H      48.266700000000000     44.110250000000008     47.334145000000007
H      49.217700000000001     45.297350000000009     47.801245000000009
H      53.863900000000001     45.601550000000003     46.686045000000007
H      47.337100000000000     44.534950000000009     44.384945000000002
H      48.740800000000000     52.700150000000008     47.929245000000009
H      50.131399999999999     52.253550000000004     51.267745000000005
H      46.370500000000000     48.507850000000005     51.402045000000001
H      45.356000000000002     43.319649999999996     44.901145000000000
H      42.951900000000002     43.476650000000006     45.203845000000001
H      42.136099999999999     45.912450000000007     46.726645000000005
H      42.293399999999998     47.527349999999998     47.498645000000010
H      44.751500000000000     48.568550000000002     46.942245000000014
H      42.352300000000000     49.437849999999997     46.928944999999999
H      44.089799999999997     46.962250000000012     49.271745000000010
H      44.708599999999997     48.554950000000005     49.723745000000008
H      45.220700000000001     47.591550000000012     50.565645000000004
H      48.535299999999999     51.060950000000005     53.191845000000001
H      47.464300000000001     49.754150000000010     53.270245000000003
H      48.958300000000001     49.506050000000002     53.205645000000004
H      51.444899999999997     53.991950000000003     48.200645000000009
H      52.320200000000000     52.409750000000003     48.296745000000001
H      51.922300000000000     46.526150000000001     42.729754999999997
N      53.266399999999990     44.771650000000008     46.095345000000009
N      50.541899999999998     49.873950000000008     46.519445000000005
O      51.391800000000003     47.140349999999998     43.323965000000001
