5

C      48.702699999999993     47.579799999999992     47.634374999999991
C      48.044399999999996     48.562420000000003     48.308545000000002
H      46.983800000000002     48.609669999999994     48.123754999999996
H      48.328099999999992     49.329859999999996     48.901524999999999
O      49.016199999999998     46.670140000000004     47.098475000000001
