22

C      47.699099999999987     50.514264999999995     47.085149999999999
C      47.853300000000004     49.567765000000001     45.743550000000006
C      48.478200000000001     49.906765000000000     48.328050000000012
C      48.574600000000004     48.148665000000001     46.015050000000009
C      47.964500000000001     48.358465000000002     48.556650000000012
C      48.340099999999993     47.623245000000004     47.417150000000007
C      47.501700000000000     48.092464999999997     49.932449999999996
C      47.879700000000000     46.271664999999999     47.784650000000006
C      47.240300000000005     46.758635000000005     50.113350000000004
C      47.155299999999997     45.850175000000000     48.925350000000016
H      48.399900000000002     51.282964999999997     46.669550000000008
H      46.630300000000005     50.980465000000002     47.178750000000015
H      46.906300000000002     49.099565000000005     45.563950000000006
H      48.365600000000001     50.209465000000002     44.900150000000004
H      48.357299999999995     50.624864999999993     49.230950000000014
H      49.502499999999998     49.823365000000003     48.081150000000008
H      48.602199999999996     47.295515000000002     45.303350000000009
H      49.551100000000005     48.652065000000000     45.942050000000009
H      47.329300000000003     48.958565000000000     50.759850000000007
H      47.964800000000011     45.367065000000004     47.143950000000011
H      46.930300000000003     46.277565000000003     51.099849999999996
H      46.448899999999995     44.717035000000003     48.937950000000008
