5

C      47.981949999999991     47.854149999999997     47.729699999999994
H      47.677349999999997     48.824550000000002     47.956800000000008
H      48.376050000000006     47.314450000000001     48.772500000000001
H      48.886949999999999     48.058750000000003     47.282600000000002
H      47.113050000000001     47.175449999999998     47.227499999999999
