21

C      48.223699999999994     49.679499999999997     48.656499999999987
C      49.383399999999995     47.845800000000004     47.343399999999995
C      49.631299999999996     49.268000000000001     47.980199999999996
C      50.798299999999998     49.203900000000004     49.038799999999995
C      48.032499999999999     47.541000000000004     47.269399999999997
C      47.270099999999999     48.751800000000003     47.702099999999994
C      47.341899999999995     46.409100000000002     46.563699999999997
C      46.009299999999996     49.093299999999999     47.628399999999999
C      45.871399999999994     46.622700000000002     46.772199999999998
C      45.272599999999997     47.853099999999998     47.112199999999994
H      47.851299999999995     50.668700000000001     48.927099999999996
H      48.507300000000001     49.092399999999998     49.501999999999995
H      51.681600000000003     49.169200000000004     48.591200000000001
H      50.271799999999999     47.313600000000001     46.860399999999998
H      49.741600000000005     50.025600000000004     47.317000000000000
H      50.825699999999998     49.944099999999992     49.923800000000000
H      50.687799999999996     48.122799999999998     49.486300000000000
H      47.662199999999999     45.331299999999999     46.076200000000000
H      45.594200000000001     50.075199999999995     48.103499999999997
H      45.177199999999999     45.702600000000004     46.564399999999999
H      44.318399999999997     47.351100000000002     47.558899999999994
