29

C      44.976999999999990     46.709699999999991     48.671299999999988
C      46.407699999999991     46.511200000000002     47.914599999999993
C      50.031500000000008     47.199500000000000     46.538100000000000
C      50.596699999999998     48.020799999999994     47.654399999999995
C      48.565799999999996     47.176099999999991     46.243300000000005
C      49.564399999999992     49.305900000000001     47.948999999999998
C      47.440000000000012     47.675100000000000     47.386399999999995
C      48.175299999999993     48.646200000000007     48.272399999999990
C      47.247500000000002     49.329400000000007     47.483800000000002
C      47.669899999999998     48.526399999999995     49.616200000000006
C      46.118799999999993     49.688699999999997     48.510700000000000
C      46.497399999999999     49.266999999999996     49.845799999999997
H      44.906999999999996     46.064499999999995     49.610900000000001
H      44.230599999999995     46.369599999999998     48.076799999999992
H      46.921599999999998     45.722099999999998     48.495300000000000
H      45.053200000000004     47.692700000000002     49.034799999999990
H      46.247599999999991     45.856300000000005     47.053600000000003
H      50.519300000000001     46.178899999999999     46.662599999999998
H      50.624200000000002     47.581199999999995     45.650599999999997
H      51.769400000000005     48.266400000000004     47.522300000000001
H      50.412700000000001     47.509000000000000     48.591399999999993
H      48.629700000000000     46.150199999999998     45.709400000000002
H      48.317100000000011     47.664800000000000     45.322999999999993
H      49.512100000000004     49.993499999999997     47.075099999999992
H      49.918099999999995     49.930300000000003     48.698599999999999
H      47.504700000000000     50.071300000000001     46.759500000000003
H      48.144400000000005     47.843500000000006     50.127499999999998
H      45.367000000000004     50.277900000000002     48.082999999999998
H      45.928699999999992     49.287000000000006     50.677000000000007
