5

C      47.771099999999990     47.923699999999997     47.684199999999997
H      47.364100000000001     48.063199999999995     48.912199999999999
H      47.144799999999996     47.060500000000005     47.460099999999997
H      47.919099999999993     48.939499999999995     47.087800000000001
H      48.855200000000004     47.648399999999995     47.575800000000001
