55

C      48.649899999999988     47.349099999999993     45.206097000000000
C      47.241600000000005     47.719199999999994     45.432976000000004
C      48.665800000000004     47.747099999999996     49.846715000000003
C      47.354500000000002     48.256200000000000     49.081295000000004
C      49.838700000000003     47.532699999999998     46.228215000000013
C      46.846500000000006     48.293799999999997     46.659265000000005
C      49.689400000000006     47.245699999999992     48.837134999999996
C      45.290700000000001     48.052399999999999     52.299295000000008
C      49.132199999999997     47.546699999999994     47.512845000000006
C      47.853700000000003     48.251799999999996     47.693125000000002
C      48.511499999999998     46.706699999999991     42.813205000000025
C      47.328800000000001     47.477499999999999     43.025705000000002
C      46.742199999999997     49.008599999999994     43.335504999999991
C      46.430599999999998     47.860300000000002     44.077405000000020
C      49.076999999999998     47.996499999999990     51.176945000000003
C      47.912000000000006     48.433900000000001     51.944505000000007
C      46.518199999999993     48.187300000000000     51.384385000000002
C      46.143799999999999     48.035999999999994     49.998165000000007
C      51.030799999999999     47.495699999999992     45.369143999999999
C      50.518000000000001     46.678599999999996     44.234704999999998
C      49.110200000000006     46.450699999999991     44.091305000000013
C      45.363000000000000     48.979700000000001     46.688325000000006
C      44.531700000000001     48.737900000000003     45.424709000000007
C      45.210700000000003     48.776199999999996     44.007905000000015
C      51.146000000000001     46.978499999999990     49.358475000000006
C      51.712000000000003     47.951199999999993     50.506845000000006
C      50.582300000000004     48.379799999999996     51.390745000000003
C      50.656700000000001     47.948199999999993     52.722615000000012
C      50.820599999999999     46.277899999999995     53.025705000000002
C      50.680100000000010     50.008299999999998     51.300325000000008
H      47.662999999999997     49.539899999999996     43.871605000000010
H      48.073399999999992     48.972900000000003     52.740645000000008
H      45.077799999999996     48.063699999999990     49.550735000000010
H      52.144800000000004     47.865400000000001     45.521822000000007
H      51.225600000000000     46.524399999999993     43.351804999999999
H      49.127300000000005     45.378599999999999     44.370604999999991
H      48.786699999999996     46.423799999999993     41.902304999999991
H      44.718999999999994     49.242100000000001     47.653725000000001
H      45.675700000000006     49.927100000000003     47.131255000000003
H      43.692200000000000     47.844400000000000     45.560375000000001
H      43.449200000000005     49.394399999999997     45.160505000000008
H      44.507099999999994     48.532999999999994     43.013105000000010
H      50.886800000000008     45.975499999999990     49.813635000000005
H      51.746300000000005     46.772100000000002     48.470424999999999
H      52.550799999999995     47.441499999999998     51.022494999999999
H      52.141899999999993     48.929799999999993     50.201034999999997
H      50.007599999999996     48.009899999999995     53.571465000000011
H      51.616600000000005     48.512200000000000     53.214185000000008
H      51.063000000000002     46.041899999999991     54.097695000000009
H      49.804100000000005     45.814000000000000     52.663424999999997
H      51.671700000000001     45.996299999999998     52.538955000000009
H      49.648800000000008     50.621400000000001     50.974525000000007
H      50.965699999999998     50.575499999999998     52.250135000000007
H      51.369100000000003     50.341799999999999     50.615405000000003
O      44.406599999999997     48.163499999999992     53.008295000000004
