22

C      48.205199999999991     46.435800000000000     46.158249999999981
C      49.423499999999997     47.487200000000009     45.870549999999994
C      46.876399999999997     46.793700000000008     46.688550000000006
C      49.401599999999995     48.804600000000008     46.775349999999989
C      47.038300000000000     47.859700000000011     47.779550000000000
C      48.305699999999995     48.611600000000003     47.723949999999988
C      46.276000000000003     47.503600000000006     49.061850000000007
C      48.555900000000001     49.495100000000001     48.903149999999997
C      46.658700000000003     48.226400000000005     50.256449999999987
C      47.683199999999999     49.232900000000008     50.047549999999987
H      48.085900000000002     46.000300000000003     45.216049999999996
H      48.540900000000001     45.703700000000005     46.662449999999993
H      50.333800000000004     46.829600000000006     45.820949999999996
H      49.563200000000002     47.789100000000012     44.801149999999993
H      46.130900000000004     45.947300000000006     46.683749999999989
H      46.182099999999998     47.388300000000008     45.997850000000000
H      50.467700000000001     48.963400000000000     47.019649999999999
H      49.081699999999998     49.620500000000014     46.177849999999992
H      45.532299999999999     46.755699999999997     49.118849999999995
H      49.306199999999997     50.296299999999995     48.820350000000005
H      46.277799999999999     48.017000000000003     51.198850000000007
H      47.661899999999996     50.164000000000009     50.755349999999993
