110

C      47.612049999999996     47.443949999999994     55.319594499999980
C      47.049949999999995     46.302750000000003     54.580194499999998
C      50.436849999999993     45.620149999999995     49.987594499999993
C      48.157049999999998     48.491150000000005     54.484594499999993
C      50.938850000000002     46.734549999999999     49.094794499999999
C      47.633349999999993     46.412750000000003     53.208594499999997
C      50.463749999999990     49.311549999999997     49.330294499999987
C      50.023349999999994     50.070949999999996     50.436194499999992
C      50.190949999999987     47.881850000000000     49.666894499999991
C      49.729349999999997     50.259150000000005     54.316394499999994
C      49.347549999999998     49.650050000000007     51.744294499999988
C      49.284750000000003     47.322649999999996     50.706094499999999
C      48.170450000000002     47.767449999999997     53.013094499999987
C      48.834949999999992     48.291849999999997     51.716994499999991
C      47.509450000000001     47.721950000000007     56.798194499999987
C      46.706949999999992     46.729550000000003     57.684794499999988
C      46.393349999999998     45.444950000000006     56.959794499999994
C      46.748449999999991     45.053950000000000     55.473094499999995
C      50.527249999999995     53.183450000000008     48.684294500000000
C      50.630549999999999     50.574150000000003     48.394094499999987
C      50.127650000000003     51.821050000000000     49.014294499999998
C      49.985149999999990     51.500150000000005     50.470594499999997
C      47.821150000000003     49.024450000000002     57.364094500000000
C      47.537849999999992     49.138850000000005     58.756294499999989
C      46.795249999999996     48.198850000000007     59.494594499999998
C      46.333150000000003     46.873050000000006     59.067094499999989
C      48.782950000000000     49.610550000000003     55.122694499999987
C      48.405349999999999     50.143249999999995     56.404894499999990
C      45.251949999999994     44.831450000000004     57.606494499999990
C      45.934249999999992     44.130849999999995     54.905694499999989
C      52.375649999999993     47.030150000000006     48.542894499999996
C      46.228749999999991     42.854150000000004     55.623894499999999
C      50.011449999999996     50.318150000000003     46.978794499999999
C      46.205050000000000     47.914150000000006     38.303994499999995
C      45.402249999999995     48.992050000000006     38.878394499999992
C      49.214249999999993     47.593950000000007     41.109494499999990
C      49.146549999999991     48.581350000000000     42.293694499999994
C      47.564049999999995     47.355649999999997     38.789994499999999
C      45.951349999999991     49.261750000000006     40.245194499999990
C      49.284949999999995     46.899050000000003     42.392294499999998
C      47.952950000000001     49.400250000000000     41.885694499999993
C      48.061449999999994     47.854849999999999     40.096594499999988
C      47.266249999999999     48.982650000000007     40.660994499999994
C      45.643549999999991     47.312750000000008     37.094894499999988
C      44.392550000000000     47.850049999999996     36.605894499999998
C      44.183750000000003     49.393749999999997     36.806994499999995
C      44.596149999999994     49.766149999999996     38.119094499999996
C      48.173949999999991     46.306950000000001     37.999994499999993
C      47.621249999999989     45.468050000000005     37.096894499999998
C      46.215949999999992     45.912149999999997     36.540794499999997
C      44.952550000000002     50.272949999999994     40.962494499999998
C      43.415449999999993     50.663150000000002     40.360094499999995
C      43.903449999999992     50.957350000000005     39.115294499999997
C      50.507549999999995     47.417749999999998     40.208394499999990
C      51.951250000000002     47.983850000000004     40.723294499999987
C      52.022049999999993     49.080050000000000     41.851594499999997
C      50.360549999999989     49.159949999999995     44.431394499999989
C      50.845550000000003     50.205349999999996     45.273994499999993
C      52.652050000000003     48.063649999999996     47.351194499999998
H      50.766949999999994     44.631349999999998     50.088794499999999
H      47.705550000000002     45.968950000000007     52.172094499999993
H      51.242949999999993     53.806550000000001     48.160594499999995
H      51.688649999999996     50.807150000000007     48.044194499999996
H      49.703149999999994     52.345250000000007     51.238794499999990
H      47.805750000000003     50.265450000000001     59.140394499999992
H      46.416349999999994     48.748850000000004     60.499905500000004
H      45.959750000000000     45.966850000000008     59.619094499999996
H      50.374349999999993     51.124849999999995     54.731794499999999
H      47.863849999999999     51.052350000000004     56.488794499999990
H      49.493449999999996     50.420749999999998     56.881994499999998
H      46.218649999999997     43.926950000000005     53.893094499999997
H      44.838549999999998     44.495549999999994     54.882494500000000
H      45.535950000000000     41.957149999999999     55.320194499999992
H      47.321449999999999     42.367649999999998     55.437694499999999
H      45.880449999999996     42.888549999999995     56.665994499999989
H      49.308949999999996     50.974850000000004     46.889394499999987
H      50.433149999999998     54.042850000000001     49.544294499999999
H      49.188049999999990     49.576949999999997     47.040094499999988
H      50.265249999999995     50.454250000000002     42.721294499999992
H      47.402549999999991     50.146850000000001     42.561894499999987
H      44.110950000000003     46.958550000000002     35.971194499999989
H      43.452050000000000     49.480050000000006     36.106194499999994
H      48.051549999999992     44.491849999999999     36.747894499999994
H      46.006149999999991     45.467349999999996     35.500094499999996
H      45.415750000000003     45.128850000000000     36.848394499999991
H      45.662549999999996     51.127750000000006     41.112294499999997
H      44.869850000000000     49.644250000000000     41.860294499999988
H      42.974649999999997     51.496949999999998     40.672894499999991
H      42.692750000000004     49.917150000000007     40.258794499999986
H      44.780549999999991     51.603549999999998     39.217794499999989
H      43.255150000000000     51.742850000000004     38.537394499999998
H      50.605750000000000     46.363749999999996     40.153194499999991
H      50.490249999999989     47.731549999999999     39.126094499999986
H      52.649049999999988     48.376450000000006     40.042094499999997
H      52.819749999999985     46.976349999999996     41.128894499999994
H      52.371250000000003     50.121250000000003     41.692094499999989
H      52.789550000000006     48.773949999999999     42.499194499999994
H      51.956649999999996     50.240949999999998     45.421594499999991
H      50.898949999999999     51.273150000000001     44.696094499999994
H      53.099849999999989     47.628450000000001     46.412394499999998
H      53.083049999999986     49.100350000000006     47.685094499999998
H      51.664349999999999     48.455550000000002     47.040294499999995
H      49.073650000000001     45.634650000000008     38.367894499999998
N      49.352049999999991     45.929950000000005     50.823494499999988
N      49.619649999999993     50.382750000000001     52.907494499999991
N      50.399450000000002     49.389150000000001     42.870994499999988
O      44.603549999999998     43.977149999999995     58.060394499999994
O      53.307249999999996     46.683850000000007     49.198894499999987
O      50.238549999999989     48.118150000000000     45.082494499999989
O      48.916749999999993     45.759050000000002     42.748594499999989
