22

C      45.778304999999989     49.422699999999992     48.456649999999996
C      46.833095000000000     50.392399999999995     48.579449999999994
C      45.925524999999993     48.087400000000002     47.564750000000004
C      48.124295000000004     49.626899999999992     48.053150000000002
C      47.228285000000000     47.317799999999991     47.215750000000000
C      48.350255000000004     48.238799999999998     47.345150000000004
C      47.556875000000005     45.926199999999994     47.067750000000004
C      49.806475000000006     47.889600000000002     47.197550000000007
C      49.007135000000005     45.680199999999999     46.752350000000007
C      50.022335000000012     46.582399999999993     46.812550000000002
H      45.415805000000006     48.775999999999996     49.570249999999987
H      44.907794999999993     50.060400000000001     48.351349999999996
H      47.226614999999995     50.691299999999998     49.576949999999997
H      46.517515000000003     51.325699999999998     48.057350000000000
H      46.185874999999996     48.898200000000003     46.762950000000004
H      44.975305000000006     47.571100000000001     47.266949999999994
H      48.846435000000000     49.856499999999997     48.971450000000004
H      48.452264999999997     50.407699999999991     47.489950000000007
H      46.916165000000007     45.098900000000000     47.196449999999999
H      50.696705000000009     48.610299999999995     47.298550000000006
H      49.227834999999999     44.674300000000002     46.423050000000003
H      51.092205000000007     46.276899999999998     46.683549999999997
