12

C      47.904090999999980     46.734799999999986     47.234800000000000
C      48.124490999999985     48.103399999999993     48.170900000000003
C      48.062290999999995     49.497699999999995     47.370099999999994
C      47.527290999999984     49.403400000000005     48.778400000000005
H      48.428990999999989     45.841099999999997     47.613900000000001
H      46.931790999999997     46.428500000000000     47.421899999999994
H      48.198790999999993     47.021699999999996     46.276399999999995
H      49.135909000000005     47.906700000000001     48.577700000000007
H      47.298090999999992     49.466999999999999     46.509699999999995
H      48.890490999999990     50.158900000000003     47.570899999999995
H      48.146090999999991     49.966399999999993     49.338800000000006
H      46.864090999999995     48.970900000000000     49.723600000000005
