21

C      48.410199999999989     49.576599999999992     49.317349999999990
C      49.709800000000001     50.020299999999992     49.695149999999984
C      46.579899999999995     49.656300000000002     47.445449999999994
C      47.981999999999999     50.415499999999994     46.926450000000003
C      48.010100000000008     49.264799999999994     47.834049999999991
C      48.410199999999989     47.873199999999997     47.505150000000000
C      49.163400000000010     46.899599999999992     48.253249999999994
C      48.379300000000001     47.083500000000001     46.223649999999992
C      49.682700000000011     45.595900000000000     47.611549999999994
C      49.282899999999998     45.929299999999998     46.223950000000002
H      47.761800000000008     49.418599999999998     50.235649999999993
H      49.937800000000010     50.425299999999993     50.638649999999998
H      50.229399999999998     49.749300000000005     48.817250000000001
H      45.770600000000002     49.139899999999997     46.702849999999998
H      46.117800000000003     50.369900000000001     48.201949999999997
H      48.169200000000004     51.334699999999998     47.146749999999997
H      48.104299999999995     50.415899999999993     45.778149999999997
H      49.385800000000003     47.210799999999992     49.387850000000000
H      47.864900000000006     47.519800000000004     45.361350000000002
H      49.766000000000005     44.665300000000002     48.122749999999996
H      49.395400000000009     45.284099999999995     45.491249999999994
