22

C      47.371799999999993     49.353249999999996     46.079694999999987
C      45.975800000000000     49.254149999999996     46.758130000000001
C      48.527799999999992     48.149450000000002     45.909894999999999
C      45.885600000000004     47.925249999999991     47.559445000000004
C      48.511000000000003     47.439949999999996     47.294796000000012
C      47.403399999999998     47.626249999999999     48.156524999999995
C      49.727399999999996     46.718449999999990     47.572595000000000
C      47.863599999999998     47.107649999999992     49.455435000000001
C      49.980800000000002     46.140950000000004     48.828345000000006
C      48.996299999999998     46.334549999999993     49.876444999999997
H      47.736799999999995     50.245649999999998     46.570760999999997
H      47.215100000000000     49.874250000000004     45.121895000000002
H      45.657600000000002     50.215850000000003     47.303813000000012
H      45.150500000000001     49.406949999999995     45.842194999999997
H      48.273200000000010     47.588650000000001     45.045994999999998
H      49.568800000000003     48.248549999999994     45.742995000000001
H      45.482100000000003     47.265649999999994     46.660839000000003
H      45.064500000000002     47.875349999999997     48.348175000000005
H      50.463099999999990     46.652949999999990     46.726710000000004
H      47.228800000000000     47.650750000000002     50.100005000000003
H      50.935499999999998     45.754350000000002     49.142765000000004
H      49.261099999999992     46.109449999999995     50.954005000000002
