5

C      47.858599999999996     48.278949999999995     48.102899999999991
H      47.366000000000007     48.723450000000000     48.916600000000003
H      48.734800000000000     48.759349999999998     47.701500000000010
H      48.082100000000004     47.240650000000002     48.264499999999998
H      47.265200000000000     48.495449999999991     47.083399999999997
