22

C      48.125549999999983     49.676099999999998     46.516739999999999
C      48.871449999999996     50.195800000000006     47.676109999999994
C      46.958749999999995     48.441599999999994     46.343450000000004
C      48.605649999999997     49.844200000000001     49.077929999999995
C      47.969749999999991     47.800100000000000     47.436389999999989
C      48.414349999999999     48.221099999999993     48.700839999999999
C      47.971850000000003     46.461699999999993     46.778379999999999
C      48.717649999999992     47.222600000000000     49.762060000000005
C      48.724649999999997     45.620999999999995     47.595569999999995
C      48.883749999999992     45.900800000000004     49.083839999999995
H      48.882549999999995     49.100300000000004     45.869600000000005
H      47.624549999999999     50.293899999999994     45.863669999999999
H      48.912549999999996     51.280799999999999     47.550569999999993
H      49.909350000000003     50.160600000000002     47.584679999999992
H      46.899050000000003     48.049599999999998     45.356880000000004
H      46.090649999999997     48.800100000000000     46.650729999999996
H      47.775049999999993     50.544700000000006     49.389719999999997
H      49.446050000000000     49.866399999999999     49.891850000000005
H      47.485450000000000     46.224299999999999     45.666610000000006
H      49.061650000000000     47.479699999999994     50.643119999999996
H      49.167050000000003     44.719200000000001     47.291529999999995
H      49.806649999999991     45.695800000000006     49.500129999999999
