7

C      48.475899999999989     48.959819999999993     47.990549999999992
C      47.991599999999991     47.416620000000002     47.902749999999997
H      48.633600000000001     46.428770000000000     47.762850000000000
H      47.117800000000003     47.146509999999999     48.548349999999999
H      47.521199999999993     47.564349999999997     46.950350000000000
H      48.882199999999997     49.571230000000000     47.106350000000006
O      48.609099999999998     49.462100000000000     49.049650000000000
