22

C      50.343800000000002     48.279819999999987     48.775699999999986
C      49.957500000000010     46.927249999999994     48.178600000000003
C      48.966900000000010     48.902749999999990     49.308400000000006
C      49.057900000000004     46.708409999999994     47.080799999999996
C      47.998100000000008     48.825250000000004     48.015500000000003
C      47.998400000000004     47.893299999999996     47.001599999999996
C      46.767900000000012     49.348869999999998     48.597600000000000
C      46.818500000000000     47.026039999999995     46.748000000000005
C      45.648700000000005     48.417919999999995     48.617199999999997
C      45.783200000000008     47.178410000000000     47.706800000000001
H      51.061700000000002     48.036169999999998     49.772100000000009
H      50.888499999999993     48.885979999999996     48.069299999999998
H      49.895200000000003     46.148249999999997     48.930599999999998
H      51.183799999999991     46.188279999999999     47.919200000000004
H      49.253399999999999     49.982309999999991     49.791700000000006
H      48.419499999999999     48.382159999999992     50.036100000000005
H      48.526900000000012     45.802979999999998     46.889099999999999
H      49.464600000000004     46.582310000000000     46.135900000000007
H      46.602500000000006     50.197020000000002     49.228800000000007
H      46.809600000000003     46.243179999999995     45.963899999999995
H      44.816200000000009     48.590439999999994     49.376099999999994
H      44.926900000000003     46.672999999999995     47.528899999999993
