13

C      46.232049999999987     48.768449999999987     48.009699999999988
C      49.838550000000005     46.985049999999994     48.365499999999997
C      48.484850000000002     47.356949999999991     48.118299999999991
C      46.550850000000004     48.199449999999992     46.736300000000000
C      47.741849999999992     47.391749999999995     47.006500000000003
C      46.936850000000000     48.781549999999989     49.239599999999996
C      48.042949999999998     47.858649999999990     49.382499999999993
H      45.212650000000004     49.212449999999997     47.854399999999998
H      46.047750000000001     48.235049999999994     45.794499999999999
H      47.949249999999999     46.752149999999993     46.134199999999993
H      46.640650000000001     49.504150000000003     50.002099999999999
H      48.523850000000003     47.762649999999994     50.205500000000001
O      50.787349999999996     46.495849999999997     48.493600000000001
