22

C      47.080749999999995     47.969199999999987     45.538714999999996
C      47.746249999999996     49.404199999999996     45.808975000000004
C      46.916450000000005     47.240800000000000     46.827984999999998
C      49.309750000000001     49.106199999999994     46.411184999999989
C      48.113549999999996     47.352699999999992     47.804784999999995
C      49.069949999999999     48.391399999999997     47.828885000000000
C      47.818850000000005     46.499099999999991     49.037085000000005
C      49.561350000000004     48.912299999999995     49.086284999999990
C      48.647749999999995     46.881899999999995     50.166285000000002
C      49.495250000000006     48.123399999999997     50.192785000000001
H      47.909650000000006     47.548099999999998     45.006924999999995
H      46.227449999999997     47.878599999999999     44.953284999999994
H      47.719349999999999     50.011499999999991     44.783015000000006
H      47.056050000000006     50.008699999999997     46.365885000000006
H      45.930050000000001     47.927299999999995     47.278885000000002
H      46.342750000000002     46.238999999999997     46.770685000000000
H      49.419150000000009     50.094900000000003     46.521684999999991
H      50.011749999999999     48.879699999999993     45.685214999999999
H      46.962350000000008     45.905099999999997     49.154685000000001
H      49.935849999999995     49.941699999999990     49.123485000000002
H      48.659950000000002     46.523299999999999     51.216984999999994
H      50.069949999999999     48.481699999999996     51.078384999999997
