22

C      45.794049999999984     48.966299999999990     48.713749999999990
C      46.031750000000002     49.174999999999997     47.066549999999999
C      46.581349999999986     47.858999999999995     49.317950000000003
C      47.158549999999991     48.547299999999993     46.185049999999997
C      47.912149999999997     47.483000000000004     48.588249999999995
C      48.189249999999987     47.889200000000002     47.243749999999999
C      48.749649999999988     46.597499999999997     49.417049999999996
C      49.437849999999997     47.442999999999998     46.683050000000001
C      49.990650000000002     46.185800000000000     48.802450000000000
C      50.267249999999990     46.558499999999995     47.483250000000005
H      44.782749999999993     48.569999999999993     48.888250000000006
H      45.891949999999994     49.969000000000008     49.122250000000001
H      46.489449999999991     50.186700000000002     46.799849999999999
H      45.122850000000000     49.112200000000001     46.534849999999999
H      45.924049999999994     46.975300000000004     49.689450000000001
H      46.559649999999991     48.063699999999997     50.449750000000002
H      47.982549999999989     49.308900000000008     45.777750000000005
H      46.999349999999993     47.600399999999993     45.550249999999998
H      48.074949999999987     46.200199999999995     50.214250000000000
H      49.685150000000007     47.831000000000003     45.703849999999996
H      50.701649999999987     45.813299999999998     49.302849999999999
H      51.217250000000007     46.206100000000006     47.186550000000004
