22

C      46.458899999999986     46.919249999999991     45.991700000000002
C      46.057299999999998     46.365349999999999     47.287700000000001
C      47.110900000000001     48.246649999999995     46.160700000000006
C      46.967400000000012     46.843349999999994     48.692900000000009
C      48.172499999999999     48.593249999999998     47.384100000000004
C      47.884900000000002     48.105249999999998     48.619200000000006
C      49.201099999999997     49.670649999999995     47.203100000000006
C      48.808900000000008     48.227150000000002     49.673300000000012
C      49.906099999999995     50.067950000000003     48.381600000000006
C      49.801299999999998     49.323050000000002     49.679000000000002
H      45.511200000000002     47.296949999999988     45.367300000000007
H      47.190399999999997     46.203749999999992     45.522500000000008
H      45.077799999999996     46.805149999999998     47.492600000000010
H      46.017200000000003     45.214649999999999     47.202300000000008
H      47.668099999999995     48.308149999999998     45.352800000000002
H      46.188699999999997     49.161449999999995     46.137400000000007
H      47.618400000000008     46.191449999999996     49.063300000000012
H      45.950999999999993     46.904449999999997     49.302100000000010
H      49.536000000000001     49.830949999999994     46.142500000000005
H      48.891899999999993     47.553249999999998     50.465900000000005
H      50.922200000000004     50.785350000000001     48.381300000000010
H      50.487700000000004     49.696349999999995     50.647199999999998
