22

C      47.358149999999995     50.121399999999987     46.755174999999994
C      47.679850000000002     48.953299999999999     45.546785000000000
C      47.033550000000005     49.374299999999998     48.121955000000000
C      47.762450000000008     47.573699999999995     46.001035000000002
C      48.176750000000006     48.322599999999994     48.634605000000001
C      48.411549999999998     47.602799999999995     47.453345000000006
C      48.670650000000002     48.231400000000001     49.996695000000010
C      49.234649999999995     46.336399999999998     47.631205000000001
C      49.381250000000001     47.009099999999997     50.108985000000011
C      49.744050000000009     46.130499999999998     49.028275000000001
H      46.568550000000002     50.689099999999996     46.328845000000001
H      48.122549999999997     50.944800000000001     46.849015000000001
H      48.657250000000005     49.411099999999998     45.139335000000003
H      46.801349999999999     48.818500000000000     44.879645000000004
H      47.101050000000001     50.235199999999999     49.008905000000006
H      46.109349999999999     49.018799999999999     48.288035000000001
H      48.299250000000008     46.933099999999996     45.292864999999999
H      46.584550000000000     47.260599999999997     46.175715000000004
H      48.500650000000000     49.033699999999996     50.832105000000006
H      49.201050000000002     45.523399999999995     46.894435000000009
H      49.848750000000003     46.790199999999999     51.120354999999996
H      49.890650000000001     45.055199999999999     49.510984999999998
