52

C      50.445749999999990     45.876049999999985     46.903649999999992
C      47.762850000000000     46.710949999999997     49.440550000000002
C      47.192350000000005     47.932449999999989     50.218350000000001
C      48.712450000000004     50.280649999999994     45.841849999999994
C      48.338049999999996     51.456849999999996     46.877250000000004
C      48.385549999999995     47.118449999999996     48.228250000000003
C      47.226749999999996     49.355849999999997     49.838350000000005
C      48.609150000000000     48.936949999999996     46.355350000000001
C      47.914450000000002     51.002349999999993     48.179850000000002
C      48.395849999999996     48.593749999999986     47.796949999999995
C      47.638649999999998     49.557649999999995     48.438350000000000
C      47.649349999999998     45.366349999999997     49.809150000000002
C      46.792749999999998     44.832749999999990     50.968649999999997
C      46.080449999999999     45.982549999999989     51.456050000000005
C      46.171549999999996     47.467849999999999     51.114050000000006
C      49.093850000000003     50.649949999999990     44.499949999999998
C      49.183650000000000     52.102849999999997     44.273849999999996
C      48.733450000000005     53.204849999999993     45.160150000000002
C      48.288650000000004     52.861649999999997     46.486850000000004
C      48.207149999999999     44.244449999999993     48.970749999999995
C      48.796350000000004     43.133849999999995     49.542850000000001
C      45.424949999999995     44.616949999999996     51.519750000000002
C      48.944850000000002     46.083549999999995     47.287350000000004
C      48.041049999999998     44.744049999999994     47.360749999999996
C      49.106349999999992     45.059349999999995     46.189250000000001
C      47.830649999999991     42.877049999999997     48.666550000000001
C      46.557749999999999     44.448849999999993     46.846350000000001
C      47.790449999999993     44.027049999999996     52.116450000000000
C      48.279949999999999     49.389449999999997     43.897050000000007
H      50.839549999999988     45.200749999999992     47.773150000000001
H      46.554149999999993     50.261449999999996     50.276849999999996
H      48.826849999999993     48.177649999999986     45.558750000000003
H      47.590149999999994     51.634550000000004     48.895350000000008
H      44.602450000000005     44.620849999999990     50.644850000000005
H      49.574249999999992     52.607950000000002     43.353849999999994
H      48.693449999999999     54.169650000000004     44.711650000000006
H      47.816850000000002     53.522350000000003     47.384749999999997
H      49.570549999999997     43.000249999999994     50.171149999999997
H      44.604050000000001     44.692349999999990     52.264449999999997
H      48.844449999999995     45.210249999999995     45.074749999999995
H      51.397549999999995     46.090149999999994     46.288449999999997
H      48.749150000000000     44.606449999999995     52.408450000000002
H      47.500050000000002     41.830349999999996     48.544750000000008
H      45.994150000000005     44.114649999999997     47.660150000000002
H      46.330550000000002     45.194449999999989     46.386150000000001
H      46.566350000000000     43.676849999999995     46.186549999999997
H      45.820549999999997     48.407449999999997     51.724249999999998
H      47.776749999999993     42.972849999999994     51.691550000000007
H      47.306749999999994     43.700949999999992     53.130949999999999
H      48.482450000000000     49.193049999999999     42.869050000000001
H      47.332449999999994     48.786249999999995     44.101150000000004
H      47.409250000000000     49.962649999999996     43.299650000000000
