22

C      46.052149999999990     49.510599999999997     47.134899999999995
C      47.312550000000002     50.354900000000001     47.738699999999994
C      46.150250000000000     48.353099999999998     48.231200000000001
C      48.059550000000002     50.043000000000006     48.819900000000004
C      47.343750000000000     47.596699999999998     48.675600000000003
C      48.407250000000005     48.468800000000002     49.056700000000006
C      47.707350000000005     46.153700000000001     48.731300000000005
C      49.683550000000004     48.044200000000004     49.463000000000008
C      48.999350000000007     45.638199999999998     49.171300000000002
C      50.000349999999997     46.595399999999998     49.517300000000006
H      44.882649999999998     49.795699999999997     47.095300000000002
H      46.442750000000004     49.191500000000005     46.170800000000000
H      47.173850000000002     51.426199999999994     47.619100000000003
H      47.822850000000003     50.388300000000001     46.743300000000005
H      45.196150000000003     47.771599999999992     48.125299999999996
H      45.831249999999997     49.047899999999998     49.064900000000009
H      47.858149999999995     50.606199999999987     49.829200000000000
H      49.073450000000001     50.556500000000000     48.936700000000002
H      47.407650000000004     45.350099999999998     48.225099999999998
H      50.491849999999999     48.699799999999996     49.755300000000005
H      49.297950000000000     44.573800000000006     49.249600000000001
H      51.117350000000002     46.442599999999999     49.740799999999993
