21

C      46.123227499999999     44.984200000000001     49.665999999999990
C      47.443077500000001     46.814499999999995     48.677499999999995
C      48.453107500000002     50.378600000000006     48.870999999999995
C      46.089167500000002     46.145200000000003     48.800399999999996
C      47.495667499999996     49.449699999999993     48.167999999999992
C      46.872387500000002     48.067400000000006     47.863299999999995
C      48.870087499999997     49.523300000000006     47.778700000000001
C      47.634847500000006     47.188400000000001     47.063000000000002
C      49.883537500000003     48.431299999999993     47.297100000000000
C      49.183577499999998     47.286900000000003     46.891400000000004
H      45.383531500000004     44.478800000000007     50.057299999999998
H      47.027847499999993     44.633200000000002     49.732100000000003
H      48.066887500000007     46.456699999999998     49.400499999999994
H      48.584827500000003     49.893799999999999     49.963700000000003
H      48.547587499999992     51.521199999999993     48.696600000000004
H      45.074372499999996     46.252200000000002     48.485699999999994
H      45.728817500000005     48.256599999999992     47.649299999999997
H      49.056117499999999     50.079599999999999     46.995400000000004
H      47.084907500000000     46.409100000000009     46.442999999999998
H      50.925627500000004     48.668100000000010     47.426000000000002
H      49.437077500000001     46.506600000000006     45.942700000000002
