63

C      48.045299999999997     49.055049999999994     44.876449999999991
C      46.006299999999996     50.922950000000000     50.968149999999994
C      45.967299999999994     51.392150000000001     49.455849999999998
C      45.016800000000003     50.341749999999990     49.936549999999997
C      45.045400000000001     48.949950000000001     49.356949999999998
C      43.662199999999999     50.782049999999998     50.262449999999987
C      43.884600000000006     48.339349999999996     48.724949999999993
C      42.614599999999996     49.976049999999987     49.737249999999989
C      42.530799999999999     48.894949999999994     48.670849999999987
C      47.665899999999993     48.961649999999992     48.646749999999997
C      48.193600000000004     45.802250000000001     48.318149999999989
C      51.631900000000002     52.608749999999986     49.674349999999990
C      53.429400000000001     50.703649999999996     50.160449999999997
C      46.914100000000005     47.861049999999992     48.034449999999993
C      49.393799999999999     46.353650000000002     48.689149999999998
C      52.112799999999993     51.229249999999993     49.954649999999987
C      53.408199999999994     49.314649999999986     49.974949999999993
C      49.736400000000003     50.193249999999992     49.118649999999988
C      51.338999999999999     47.789349999999999     48.966249999999988
C      49.148200000000003     48.878249999999994     48.798049999999989
C      50.018199999999993     47.686350000000004     48.782749999999993
C      51.098699999999994     50.232849999999999     49.377949999999998
C      52.077999999999989     49.032550000000001     49.378449999999987
C      47.319599999999994     46.591449999999995     47.305249999999987
C      45.587999999999994     44.797849999999997     47.212649999999996
C      46.216600000000000     44.245750000000001     48.203349999999986
C      47.465000000000003     44.706450000000004     48.867749999999987
C      46.199100000000001     45.994649999999993     46.497349999999997
C      47.648200000000003     46.909849999999992     46.087049999999991
C      44.516499999999994     44.126149999999996     47.965049999999991
C      50.159199999999998     45.199749999999995     49.622549999999990
C      49.395299999999992     44.244349999999997     50.412549999999996
C      48.036100000000005     43.782249999999991     49.903349999999989
C      50.469600000000000     43.149149999999992     50.626749999999987
C      46.388400000000004     48.296549999999996     49.379549999999995
H      43.899100000000004     44.593649999999997     48.654549999999986
H      46.917999999999992     50.324649999999991     50.909649999999999
H      45.822400000000002     51.845450000000000     51.373849999999990
H      45.605999999999995     52.351450000000000     48.995249999999999
H      46.818799999999996     51.004649999999998     48.735549999999989
H      43.382999999999996     51.690649999999991     50.823949999999996
H      43.873699999999999     47.361549999999994     48.188649999999996
H      41.618200000000002     50.267849999999996     50.242649999999998
H      41.640299999999996     48.439650000000000     48.436549999999997
H      54.347700000000003     51.170449999999988     50.240449999999996
H      54.381799999999998     48.548450000000003     50.138049999999993
H      49.035899999999998     51.131149999999991     49.365449999999996
H      52.059600000000003     46.994550000000004     48.862049999999996
H      45.719700000000003     46.573049999999995     45.680549999999997
H      48.395099999999999     46.553950000000000     45.373549999999994
H      43.805599999999998     43.577550000000002     47.313249999999996
H      50.649000000000001     44.718649999999997     48.717049999999986
H      51.124300000000005     45.629249999999999     50.026949999999999
H      49.212000000000003     44.349149999999995     51.592449999999999
H      47.199600000000004     43.397449999999992     50.611949999999993
H      48.300200000000004     42.818349999999995     49.554649999999995
H      51.475099999999998     43.611149999999995     50.886749999999992
H      50.336200000000005     42.767049999999998     51.530049999999989
H      50.920500000000004     42.376850000000005     49.918949999999995
H      48.917699999999996     49.549749999999989     44.407550000000001
H      46.716600000000000     47.854649999999992     50.282549999999986
O      47.215199999999996     48.538349999999994     45.465049999999991
O      51.256199999999993     53.623149999999995     49.292249999999996
