40

C      48.660869999999996     49.701139999999988     48.775299999999994
C      47.411970000000004     50.619239999999991     48.560200000000002
C      46.281390000000002     45.701539999999994     46.845200000000006
C      45.121260000000007     46.478539999999995     46.556400000000004
C      48.604000000000006     48.302939999999992     48.402100000000004
C      46.235220000000005     50.092540000000000     47.837200000000003
C      47.461170000000003     46.322539999999996     47.436000000000007
C      44.952990000000000     47.927639999999997     47.069500000000005
C      47.280240000000006     47.694739999999996     47.708300000000001
C      46.097620000000006     48.563139999999997     47.566699999999997
C      49.753479999999996     50.390039999999999     49.284500000000001
C      49.350560000000002     51.687739999999991     49.878699999999995
C      46.977280000000000     52.862639999999999     49.863399999999999
C      47.822830000000003     51.840039999999995     49.384100000000004
C      46.507260000000002     44.331499999999991     46.292800000000000
C      45.548500000000004     43.747329999999998     45.536000000000001
C      44.086240000000004     44.244179999999993     45.649500000000003
C      43.984270000000002     45.640039999999999     46.130000000000003
C      51.026399999999995     49.743439999999993     49.294600000000003
C      52.166679999999999     50.331739999999996     49.933800000000005
C      51.793980000000005     51.638039999999990     50.406499999999994
C      50.464800000000011     52.281639999999996     50.462000000000003
C      51.067700000000002     48.418239999999997     48.609200000000001
C      49.900130000000004     47.822839999999999     48.217700000000001
C      49.809580000000011     46.401739999999997     47.891700000000000
C      48.697430000000011     45.596539999999997     47.425300000000007
C      45.330760000000005     51.047339999999991     47.449900000000000
H      43.970720000000000     48.344139999999996     46.745300000000000
H      47.431190000000001     43.884629999999994     46.082200000000000
H      45.717190000000002     42.635159999999999     45.294499999999999
H      43.246870000000001     43.653499999999994     45.355800000000002
H      43.118120000000005     46.220339999999993     46.238900000000001
H      52.881879999999995     49.709139999999991     50.314200000000000
H      52.749980000000001     52.012339999999995     50.688900000000004
H      50.151089999999996     53.286139999999996     50.705500000000001
H      51.913880000000006     47.721339999999998     48.510800000000003
H      50.838770000000011     46.066939999999995     47.946300000000001
H      48.513240000000003     44.600539999999995     47.640300000000003
O      44.422560000000004     51.653939999999992     47.152400000000000
O      46.223420000000004     53.364840000000001     50.507999999999996
