22

C      47.420749999999998     45.687749999999994     47.542114999999988
C      47.751350000000009     46.106250000000010     45.938364999999997
C      48.635050000000000     45.976550000000010     48.441014999999993
C      47.572250000000004     47.566949999999999     46.360414999999996
C      48.608750000000008     47.437850000000005     48.605414999999994
C      48.402850000000008     48.277850000000008     47.362214999999992
C      49.073450000000001     48.188449999999996     49.770015000000001
C      48.390250000000002     49.676949999999998     47.563614999999999
C      49.330350000000003     49.579550000000005     49.935715000000002
C      49.058150000000005     50.372250000000001     48.721014999999994
H      47.254550000000002     44.654350000000001     47.567714999999993
H      46.458250000000000     46.305649999999993     48.257814999999994
H      48.799950000000003     45.858550000000001     45.776194999999994
H      47.040550000000003     45.726050000000008     45.212784999999997
H      49.518350000000005     45.649250000000002     47.935814999999998
H      48.395650000000010     45.759150000000005     49.529114999999990
H      47.502150000000007     48.202950000000001     45.467794999999995
H      46.580550000000009     47.602150000000002     46.755314999999996
H      49.414950000000012     47.499550000000006     50.471714999999989
H      47.601450000000007     50.271850000000001     46.993614999999998
H      49.541750000000000     50.272350000000010     50.787215000000003
H      48.593150000000001     51.345649999999999     48.464614999999995
