22

C      50.524149999999992     46.980199999999989     48.147250000000000
C      50.442549999999997     48.403899999999993     48.838150000000006
C      49.488250000000001     46.708299999999994     47.210750000000004
C      49.331449999999997     49.412599999999998     48.097150000000006
C      48.004950000000001     47.329999999999998     47.449450000000006
C      48.130850000000002     48.432000000000002     48.436150000000005
C      46.869650000000000     46.832099999999997     46.895750000000007
C      46.931449999999998     49.067099999999996     48.941450000000010
C      45.783250000000002     47.617499999999993     47.410150000000009
C      45.661049999999996     48.456699999999998     48.588750000000012
H      50.794049999999991     45.983199999999997     48.654350000000001
H      51.433249999999994     46.714100000000002     47.723550000000010
H      51.449750000000002     48.823999999999998     48.714350000000003
H      50.599249999999998     48.601299999999995     49.941549999999999
H      49.354549999999996     45.648600000000002     47.385150000000003
H      49.782350000000001     47.056600000000003     46.212350000000008
H      49.460349999999998     49.434100000000001     46.966150000000006
H      49.273750000000000     50.351399999999998     48.376850000000012
H      46.878650000000000     46.164699999999996     46.058450000000001
H      47.041449999999998     49.978200000000001     49.432650000000002
H      45.117249999999999     46.906300000000002     47.002450000000003
H      44.550249999999998     48.761099999999999     48.775050000000014
