51

C      48.691400000000002     48.884099999999989     50.192920000000001
C      49.973700000000008     46.579599999999999     45.760630000000006
C      44.888200000000005     47.778700000000001     47.130319999999998
C      49.751700000000007     48.062199999999997     49.481520000000003
C      47.362400000000008     49.275700000000008     49.640119999999996
C      50.329600000000006     46.879500000000000     47.108890000000002
C      45.357300000000009     48.469699999999996     48.305549999999997
C      48.560300000000005     47.021499999999996     45.544650000000004
C      46.077100000000009     47.513500000000001     46.050420000000003
C      49.352800000000009     47.500799999999998     48.094279999999998
C      46.832600000000006     48.539699999999996     48.573229999999995
C      47.605500000000006     47.510799999999996     46.496870000000001
C      47.985900000000008     47.846899999999998     47.929119999999998
C      49.194400000000009     49.745399999999997     51.262020000000007
C      50.601000000000006     49.532599999999995     51.674520000000001
C      51.276699999999998     48.428199999999997     51.193619999999996
C      51.045800000000007     47.751500000000000     49.936720000000008
C      52.067200000000007     47.032199999999996     49.116560000000007
C      51.707200000000007     46.630899999999997     47.811409999999995
C      47.165100000000002     51.095100000000002     51.392519999999990
C      48.354800000000004     50.580599999999997     52.012119999999996
C      50.812100000000008     45.685600000000001     44.795040000000000
C      52.207000000000008     45.164000000000001     45.704710000000006
C      52.690700000000000     45.995999999999995     46.895350000000008
C      51.477600000000002     46.837199999999996     43.903670000000005
C      44.585000000000008     46.427799999999998     47.585850000000008
C      43.559100000000008     45.438800000000001     47.822739999999996
H      45.738100000000003     51.080000000000005     49.896320000000003
H      44.417500000000004     48.889699999999998     48.820999999999998
H      48.131000000000007     46.778199999999998     44.606449999999995
H      45.912000000000006     48.191499999999998     45.157010000000000
H      45.899100000000004     46.645399999999995     45.046340000000001
H      51.188500000000005     50.234800000000000     52.325720000000004
H      52.149000000000008     48.189299999999996     51.519520000000000
H      53.148900000000005     46.922199999999997     49.561920000000001
H      46.769800000000004     51.780900000000003     52.208019999999991
H      49.108600000000003     51.647899999999986     52.466719999999995
H      48.426600000000008     49.926299999999998     52.927819999999997
H      50.292700000000004     45.133699999999997     44.056930000000008
H      52.154200000000003     44.219099999999997     46.043830000000000
H      53.105800000000009     45.116500000000002     45.112359999999995
H      53.516299999999994     46.697299999999998     46.510249999999999
H      53.502500000000005     45.495899999999999     47.412959999999998
H      50.802900000000001     47.810600000000001     43.703450000000004
H      52.024700000000003     46.308999999999997     43.072180000000003
H      52.379700000000007     47.342199999999998     44.531530000000004
H      44.091400000000007     48.348300000000002     46.560699999999997
H      45.425500000000007     45.620300000000000     47.878760000000000
H      42.483700000000006     45.101900000000001     47.467839999999995
H      43.912500000000009     44.357199999999999     48.044809999999998
N      46.703900000000004     50.594099999999997     50.252020000000002
