28

C      49.613039999999998     48.509849999999993     49.717899999999993
C      50.717240000000004     47.819949999999999     50.154100000000000
C      49.263540000000006     50.427050000000008     46.211100000000002
C      47.809340000000006     50.857349999999997     46.810300000000005
C      47.183340000000001     49.328550000000000     46.842700000000001
C      48.555940000000007     47.308349999999997     47.380300000000005
C      47.858040000000003     48.435749999999999     47.990200000000002
C      47.203440000000001     47.171650000000000     48.322400000000002
C      47.391840000000002     46.312950000000001     49.420600000000000
C      45.946269999999998     46.661749999999998     47.752900000000004
C      46.451459999999997     45.220749999999995     49.621800000000000
C      45.582430000000002     45.506450000000001     48.538100000000000
H      51.344539999999995     48.541750000000008     50.394999999999996
H      49.216040000000007     51.269250000000000     45.539600000000000
H      50.999539999999996     46.893949999999997     50.583799999999997
H      49.870440000000002     49.810350000000000     46.951000000000001
H      49.243139999999997     49.448949999999996     45.416200000000003
H      48.002440000000007     51.244749999999996     47.663400000000003
H      47.048140000000004     51.586550000000003     46.440800000000003
H      46.151449999999997     49.946050000000000     47.009200000000000
H      47.103040000000007     48.725749999999991     45.934900000000006
H      48.961340000000007     46.331049999999998     47.220200000000006
H      49.622940000000000     47.263950000000001     47.856600000000000
H      47.839540000000000     46.890149999999998     50.208500000000001
H      45.426159999999996     46.998449999999998     46.809800000000003
H      46.428939999999997     44.413449999999997     50.275300000000001
H      44.655460000000005     44.968849999999996     48.467000000000006
O      48.697440000000000     49.183750000000003     49.335800000000006
