22

C      48.797103999999997     49.796399999999998     46.292049999999996
C      47.478703999999993     50.299100000000003     47.282950000000000
C      48.413104000000004     48.263200000000005     46.023850000000003
C      47.732303999999999     49.781200000000005     48.642850000000003
C      47.603904000000000     47.650000000000006     47.285150000000002
C      47.491603999999995     48.412100000000002     48.604550000000003
C      47.413004000000001     46.269700000000000     47.206250000000011
C      47.124604000000005     47.591900000000003     49.673550000000006
C      46.621403999999998     45.543100000000003     48.164749999999998
C      46.642904000000001     46.322000000000003     49.442950000000003
H      49.815095999999997     49.749900000000004     46.849750000000000
H      48.891403999999994     50.501300000000001     45.436050000000009
H      47.364503999999997     51.364300000000000     47.061950000000003
H      46.503904000000006     50.128400000000006     46.968750000000000
H      49.468553500000013     47.871700000000004     45.965550000000007
H      47.539903999999993     48.264700000000005     45.249549999999999
H      47.154504000000003     50.327500000000001     49.437449999999998
H      48.789804000000004     50.173100000000005     49.293450000000007
H      47.592004000000003     45.668700000000001     46.296250000000001
H      46.932503999999994     47.820000000000000     50.750450000000001
H      46.184904000000003     44.635700000000000     48.174450000000007
H      46.377303999999995     45.589000000000006     50.357250000000008
