6

C      48.419649999999997     47.467099999999988     48.292349999999992
C      47.924250000000001     48.402200000000008     47.477750000000000
H      49.005049999999997     47.951000000000008     49.126949999999994
H      47.864350000000002     46.556399999999996     48.318550000000002
H      46.994950000000003     48.343699999999998     46.873050000000006
H      48.333649999999992     49.443600000000004     47.535150000000002
