52

C      46.414600000000000     47.475099999999998     43.166699999999985
C      47.074100000000001     51.438299999999998     51.211489999999998
C      48.428399999999996     51.200599999999994     51.162030000000001
C      50.025599999999997     52.440099999999987     52.537019999999998
C      49.612499999999997     53.871999999999986     52.923089999999995
C      49.678700000000006     51.259500000000003     51.928500000000000
C      47.624799999999993     50.159299999999988     50.696880000000000
C      51.201599999999999     53.082999999999998     53.068170000000002
C      48.080100000000002     45.394400000000005     46.205489999999998
C      48.078400000000002     46.886099999999999     45.827050000000000
C      46.644000000000005     42.972700000000003     48.996170000000006
C      48.554100000000005     45.421999999999997     47.666659999999993
C      46.693799999999996     44.763000000000005     46.355570000000000
C      46.918999999999997     44.188100000000006     49.619769999999995
C      47.962500000000006     45.095100000000002     48.974109999999996
C      46.240099999999998     43.447199999999995     46.538619999999995
C      47.518200000000007     48.123000000000005     46.285930000000008
C      47.011600000000001     48.725200000000001     48.782899999999998
C      47.852199999999996     48.094700000000003     44.857639999999989
C      49.455399999999997     45.367199999999997     48.868890000000000
C      49.194900000000004     44.590100000000007     45.408560000000008
C      47.087699999999998     47.984600000000000     47.667730000000006
C      45.252399999999994     44.374499999999998     46.072510000000008
C      44.627700000000004     44.055800000000005     44.739979999999989
C      47.320800000000006     48.637799999999999     43.625396999999992
C      45.925700000000006     47.411100000000005     48.319989999999990
H      45.890000000000001     46.756000000000000     44.130778000000007
H      46.839399999999998     46.733699999999999     42.374399999999994
H      45.457200000000000     47.706599999999995     43.059499999999986
H      50.433199999999999     50.491500000000002     52.099639999999994
H      46.136799999999994     42.429400000000001     49.775489999999998
H      46.734399999999994     44.320200000000000     50.565390000000001
H      50.628200000000007     45.479699999999994     48.719780000000000
H      46.780799999999999     52.400000000000006     53.160010000000000
H      48.838300000000004     43.685800000000000     44.858080000000001
H      50.170699999999997     44.223200000000006     45.905560000000008
H      44.462100000000007     44.799499999999995     46.677199999999999
H      44.365700000000004     45.116399999999999     44.158121999999999
H      45.482100000000003     43.633099999999999     44.122877000000003
H      48.177599999999998     48.950199999999995     42.990299999999991
H      46.556899999999999     49.560999999999993     43.678782999999996
H      45.119600000000005     47.006799999999998     47.696979999999996
H      46.210499999999996     46.813800000000001     48.892880000000005
H      49.752700000000004     45.305599999999998     44.778689999999997
H      45.354699999999994     52.408299999999997     51.735719999999986
H      43.673800000000000     43.402600000000007     44.701849999999993
H      45.370400000000004     41.571600000000004     47.648029999999999
N      46.357200000000006     52.198999999999998     52.266839999999995
N      46.082400000000007     42.427800000000005     47.760059999999996
O      47.360399999999998     48.838700000000003     49.981729999999999
O      52.326200000000000     53.529399999999995     52.922499999999999
O      48.835400000000007     54.428399999999996     53.625600000000006
