24

C      46.882999999999996     47.034799999999997     46.193849999999998
C      48.860499999999995     50.846599999999995     49.462350000000008
C      49.188399999999994     46.573800000000006     46.593050000000012
C      47.652300000000004     49.921600000000012     49.214350000000003
C      47.921299999999995     46.775100000000002     47.241750000000003
C      48.217599999999997     47.684200000000004     48.425250000000005
C      48.239500000000000     45.401800000000001     47.797350000000002
C      47.869400000000006     49.119299999999996     47.959450000000011
C      48.568199999999997     45.486900000000006     49.320950000000003
C      48.487500000000004     46.879100000000001     49.599950000000000
H      46.508000000000003     46.079600000000006     45.688250000000004
H      48.409200000000006     51.517099999999999     50.297450000000005
H      46.240400000000001     47.603500000000011     46.829350000000012
H      47.161300000000004     48.000300000000010     45.451050000000002
H      49.316499999999998     51.423700000000004     48.610350000000004
H      49.620600000000003     50.350600000000000     49.953550000000007
H      49.759599999999999     47.323500000000010     46.953250000000004
H      49.302399999999999     45.987000000000002     45.625250000000001
H      47.786899999999996     49.096099999999993     50.100950000000005
H      46.613099999999996     50.484600000000000     49.240650000000009
H      48.016900000000000     44.482900000000001     47.102250000000005
H      47.728000000000002     49.256500000000003     46.859950000000005
H      48.439500000000002     44.744100000000003     50.106050000000003
H      48.429899999999996     47.219899999999996     50.548949999999998
