5

C      48.399149999999999     47.534949999999995     48.445899999999995
C      47.739450000000005     48.270750000000000     47.554100000000005
H      47.207650000000001     49.154850000000003     48.000000000000007
H      47.398650000000004     47.873349999999995     46.729400000000005
O      48.792349999999999     46.845149999999997     49.270599999999995
