83

C      46.011949999999992     45.157184999999984     44.393039999999992
C      48.313749999999999     50.243784999999995     52.181330000000003
C      47.335549999999998     51.305084999999998     52.022020000000005
C      46.247050000000002     44.983884999999994     45.824739999999991
C      45.223150000000004     46.230084999999995     43.913240000000002
C      48.314350000000005     49.046884999999996     51.140244000000003
C      46.330550000000002     51.291485000000002     50.940650000000005
C      46.168250000000000     46.269484999999996     46.586839999999995
C      44.709149999999994     48.759284999999998     44.034939999999992
C      45.030150000000006     49.989484999999995     44.735140000000001
C      44.505150000000000     51.221685000000001     46.835439999999991
C      44.772850000000005     51.413184999999991     48.292040000000000
C      47.311049999999994     48.131684999999997     48.895339999999990
C      45.206149999999994     47.503385000000002     44.715139999999991
C      44.948650000000001     49.996185000000004     46.293439999999990
C      47.306550000000001     49.132084999999996     50.164139999999989
C      46.344449999999995     50.289984999999994     49.941539999999989
C      45.726550000000003     47.478884999999998     46.086939999999998
C      45.620350000000002     50.221285000000002     48.793139999999994
C      46.036450000000002     48.861184999999999     48.227639999999994
C      45.466149999999999     48.761884999999999     46.941139999999990
C      45.160250000000005     52.242507000000003     50.770839999999993
C      44.687749999999994     52.290414000000006     49.415839999999989
C      46.668949999999995     43.940684999999995     43.644039999999990
C      47.367450000000005     42.907784999999997     44.370440000000002
C      47.024050000000003     42.722185000000003     45.750239999999991
C      46.492549999999994     43.623084999999996     46.694940000000003
C      49.054149999999993     50.350884999999998     53.402879999999996
C      48.951049999999995     51.337484999999994     54.353190000000005
C      47.752250000000004     52.113187000000003     54.438149999999993
C      46.827550000000002     52.042209800000002     53.266600000000011
C      45.626350000000002     53.003845000000005     53.307430000000011
C      45.190749999999994     53.597755000000014     51.770245000000003
C      45.073750000000004     46.136384999999997     42.408339999999995
C      45.750150000000005     45.184384999999999     41.429040000000001
C      46.274450000000002     43.935684999999999     42.170940000000002
C      47.974450000000004     41.964085000000004     43.380640000000000
C      45.826449999999994     54.126155000000004     54.479500000000002
C      47.992750000000001     50.347585000000002     46.298739999999995
C      48.495649999999998     51.380684999999993     47.420839999999998
C      48.724750000000000     48.008684999999993     47.949239999999989
C      49.443449999999999     50.472985000000001     48.531840000000003
C      48.642949999999999     48.915384999999993     46.740539999999996
C      49.677449999999993     49.256385000000002     47.636539999999997
C      49.019750000000002     48.049185000000001     45.580439999999996
C      51.024950000000004     48.536785000000002     47.520539999999997
C      50.189549999999997     47.262084999999992     45.514039999999994
C      51.192849999999993     47.504384999999992     46.513039999999990
H      48.765850000000000     48.090184999999998     51.564943999999997
H      46.220650000000006     46.427985000000000     47.667540000000002
H      44.423649999999995     48.968184999999998     42.926539999999989
H      44.826949999999997     50.785485000000001     44.158839999999998
H      44.362049999999996     52.003478800000003     46.263840000000002
H      46.833249999999992     47.048584999999996     49.004139999999992
H      44.122050000000002     53.187195000000010     49.055139999999994
H      47.480450000000005     41.702984999999991     46.275340000000000
H      46.804850000000002     43.373285000000003     47.889240000000001
H      49.931650000000005     49.632285000000003     53.546700000000001
H      49.225049999999996     51.238885000000003     55.398740000000004
H      47.663250000000005     52.974143000000005     55.048290000000009
H      44.835750000000004     52.427845000000005     53.841840000000005
H      44.248149999999995     54.168965000000007     51.772660000000002
H      46.153750000000002     53.826875000000008     50.870927100000003
H      44.002549999999999     46.299285000000005     42.262839999999997
H      45.140649999999994     47.165185000000001     42.049439999999990
H      46.256249999999994     45.833284999999997     40.581040000000002
H      45.083050000000000     44.933585000000001     40.603839999999991
H      46.746949999999998     43.110785000000000     41.445439999999991
H      44.897450000000006     54.775145000000002     54.585200000000000
H      46.197050000000004     53.592345000000002     55.418959999999998
H      46.611549999999994     54.889715000000002     54.517070000000004
H      46.916550000000001     50.433484999999997     46.204639999999998
H      48.564250000000001     50.271885000000005     45.236539999999991
H      47.629850000000005     51.913384999999998     47.914439999999999
H      49.208550000000002     52.224161000000002     47.024439999999998
H      49.305250000000001     47.046784999999993     47.858639999999994
H      48.974050000000005     50.355084999999995     49.595540000000000
H      50.331850000000003     50.836284999999997     48.941739999999996
H      47.991749999999996     48.054684999999999     45.120639999999995
H      51.611750000000001     48.508185000000005     48.342939999999999
H      50.204549999999998     46.663085000000002     44.644039999999990
H      51.997450000000001     46.843084999999995     46.533940000000001
O      48.434250000000006     41.110284999999998     42.851540000000000
