22

C      49.768799999999985     47.525299999999987     46.382999999999988
C      49.886600000000001     46.588700000000003     47.568799999999996
C      48.340099999999993     47.948099999999997     46.078399999999995
C      48.340299999999999     45.994699999999995     48.171899999999994
C      47.513099999999994     48.250000000000000     47.407100000000000
C      47.432999999999993     47.213600000000000     48.475299999999990
C      46.916100000000000     49.503600000000006     47.688599999999994
C      46.814899999999994     47.386700000000005     49.772099999999995
C      46.206400000000002     49.712999999999994     48.924400000000006
C      45.923599999999993     48.564000000000007     49.786499999999990
H      50.495099999999994     48.507500000000007     46.317200000000000
H      50.253299999999996     46.993899999999996     45.282799999999995
H      50.483000000000004     47.348299999999995     48.206699999999998
H      50.581000000000003     45.745300000000000     47.441800000000001
H      47.966099999999997     47.122000000000000     45.523699999999998
H      48.290999999999997     48.919800000000009     45.340299999999999
H      48.322999999999993     45.216999999999999     49.052700000000002
H      47.746600000000001     45.694599999999994     47.372900000000001
H      46.933399999999992     50.241400000000013     46.914800000000000
H      47.025499999999994     46.482500000000002     50.691500000000005
H      45.737099999999998     50.783000000000001     49.022599999999997
H      45.418999999999997     48.343300000000013     50.717200000000005
