22

C      47.013549999999995     48.971239999999987     46.294849999999990
C      48.289349999999999     49.843682000000008     46.940650000000005
C      46.442350000000005     48.225539999999995     47.301249999999996
C      48.283450000000002     50.125107999999997     48.507549999999995
C      47.511849999999995     47.747039999999998     48.253850000000000
C      48.392749999999992     48.711140000000000     49.018950000000004
C      47.804949999999991     46.278239999999997     48.367649999999998
C      49.493449999999996     48.164339999999996     49.790350000000004
C      48.752449999999996     45.990039999999993     49.344949999999997
C      49.591949999999997     46.806640000000002     50.137450000000001
H      46.871449999999996     48.444639999999993     45.337350000000001
H      46.431749999999994     49.823382000000009     45.899049999999995
H      49.118049999999997     49.453631000000016     46.273749999999993
H      48.104950000000002     50.928520000000006     46.619550000000004
H      45.986750000000001     47.420040000000000     46.872249999999994
H      45.707250000000002     48.813739999999996     47.805750000000003
H      47.237949999999998     50.536880000000004     48.522649999999999
H      48.909549999999996     51.024460000000005     48.863349999999997
H      47.340750000000000     45.721140000000005     47.804649999999995
H      50.292749999999998     48.829340000000002     50.333849999999998
H      48.869249999999994     44.975539999999995     49.601550000000003
H      50.103849999999994     45.947639999999993     50.662649999999999
