6

H      49.558399999999992     48.742949999999993     47.126949999999994
H      48.149000000000001     48.847850000000001     48.855350000000001
H      49.170000000000002     47.152149999999999     47.791650000000004
H      46.441600000000008     48.437550000000002     48.873050000000006
N      49.203699999999998     48.225450000000002     48.135450000000006
O      47.200800000000001     47.734950000000005     48.864050000000006
