22

C      50.243449999999996     47.606699999999989     47.039649999999988
C      49.696649999999991     46.694799999999994     48.128450000000001
C      49.379249999999999     48.924299999999995     47.739949999999993
C      46.408850000000001     49.891699999999993     46.991849999999999
C      47.984949999999998     48.378899999999994     48.158149999999992
C      48.586050000000000     47.152300000000004     48.860949999999988
C      46.617350000000002     48.589599999999997     47.735450000000000
C      47.692549999999997     46.130499999999991     48.653349999999989
C      45.676549999999992     47.430900000000001     48.076349999999991
C      46.144549999999995     46.156299999999995     48.583249999999992
H      51.398849999999996     47.678499999999993     46.877649999999996
H      49.723649999999992     47.521599999999999     46.113549999999989
H      50.222149999999999     45.784699999999994     48.505449999999996
H      48.838549999999998     47.181499999999993     49.945650000000001
H      49.274450000000002     49.786700000000003     46.915249999999993
H      49.917950000000005     49.253499999999995     48.468349999999994
H      45.675849999999997     49.706600000000002     46.054349999999999
H      45.238749999999996     50.439199999999992     47.031649999999999
H      47.176749999999998     50.668399999999998     46.831549999999993
H      48.465350000000001     45.331600000000002     48.741449999999986
H      44.601150000000004     47.380499999999991     47.661449999999988
H      45.181449999999998     45.390300000000003     48.549349999999990
