20

C      47.866399999999999     48.184049999999992     46.185799999999993
C      47.097900000000003     47.372150000000005     47.383099999999999
C      46.499800000000000     50.230249999999998     49.493200000000002
C      46.660199999999996     45.935150000000007     47.553599999999989
C      47.056300000000000     48.146950000000004     48.643499999999989
C      47.476599999999998     46.676250000000010     48.522300000000001
C      47.738599999999998     49.216450000000009     49.423699999999997
C      48.849299999999992     46.465850000000003     48.866399999999999
C      49.087499999999999     49.166550000000001     49.885099999999994
C      49.480399999999996     47.745550000000009     49.494199999999992
H      48.420099999999998     49.005250000000004     46.702100000000002
H      47.404699999999998     48.849249999999998     45.518799999999999
H      48.430299999999995     47.589050000000000     45.527099999999990
H      46.498899999999999     51.181049999999999     50.170099999999991
H      45.591799999999999     49.870350000000002     50.009599999999992
H      46.704299999999996     44.818950000000001     47.393900000000002
H      46.420700000000004     50.215350000000001     48.410600000000002
H      49.356699999999996     45.496350000000007     48.909899999999993
H      49.845499999999994     49.819249999999997     50.481200000000001
H      50.408200000000001     47.316550000000007     49.655699999999996
