22

C      47.759199999999986     49.962749999999993     48.764949999999999
C      48.471800000000002     49.384650000000001     47.368750000000006
C      46.275799999999990     49.174350000000004     48.623450000000005
C      47.028499999999994     47.482750000000003     46.546350000000004
C      47.034999999999997     47.804850000000002     48.324850000000005
C      48.230199999999996     47.836349999999996     47.406250000000000
C      47.047100000000000     46.678449999999998     49.360750000000003
C      49.427399999999992     47.058850000000000     47.483950000000000
C      48.149299999999997     45.790350000000004     49.209750000000000
C      49.338899999999995     45.922950000000000     48.304250000000003
H      47.774899999999988     51.177949999999996     48.711850000000005
H      48.542499999999990     49.778649999999999     49.691450000000003
H      49.495899999999992     49.805450000000000     47.077350000000003
H      48.180399999999992     49.965150000000008     46.507450000000006
H      45.687100000000001     49.648750000000000     47.743050000000004
H      45.923699999999997     49.318049999999999     49.656650000000006
H      46.968499999999992     46.396349999999998     46.434850000000004
H      46.295299999999997     48.178550000000001     45.778250000000000
H      46.400099999999995     46.623050000000006     50.221750000000000
H      50.117499999999993     47.119150000000005     46.668150000000004
H      48.191899999999990     44.822050000000004     49.720649999999999
H      50.312899999999999     45.404250000000005     48.523950000000006
