21

C      50.568574499999990     48.692999999999991     48.265299999999996
C      50.617474500000000     47.252600000000001     48.236400000000003
C      49.220074499999996     49.516700000000000     48.408799999999999
C      49.336674500000001     46.548700000000004     47.628700000000009
C      48.241274499999989     47.303199999999997     48.444900000000004
C      47.993874499999990     48.743000000000009     48.477800000000002
C      46.743974499999993     49.245000000000005     48.558999999999997
C      47.190474499999993     46.465100000000000     48.954499999999996
C      45.517974499999994     48.394300000000001     48.565300000000008
C      45.938774499999994     47.033299999999997     48.970300000000009
H      51.295616500000001     49.178699999999992     49.008099999999999
H      50.855574499999989     48.850099999999998     47.214399999999998
H      51.506325500000003     46.854599999999998     47.500100000000003
H      50.540274499999995     46.839900000000000     49.407399999999996
H      49.279574499999995     50.662300000000002     48.647599999999997
H      49.367374499999997     46.947299999999998     46.592600000000004
H      49.478374500000001     45.517800000000001     47.780900000000003
H      46.671574499999991     50.352000000000004     48.544700000000006
H      47.369374499999992     45.337699999999998     49.257599999999996
H      44.493674499999997     48.936999999999998     48.262299999999996
H      45.043174499999992     46.728400000000001     49.384199999999993
