22

C      47.848149999999997     47.390299999999996     50.710549999999991
C      46.431150000000002     47.590000000000003     50.014349999999993
C      48.997650000000007     47.700699999999998     49.877449999999996
C      46.340450000000004     48.738000000000000     48.861050000000006
C      48.744850000000000     47.972499999999997     48.355249999999998
C      47.448850000000007     48.206900000000005     47.834949999999992
C      49.616450000000000     47.480199999999996     47.300250000000005
C      46.988749999999996     48.076599999999999     46.458749999999995
C      49.326549999999997     47.230800000000002     45.862549999999999
C      47.869349999999997     47.330100000000002     45.589849999999998
H      47.696849999999998     46.300200000000004     50.952349999999996
H      47.752549999999999     48.152000000000001     51.538449999999997
H      45.531149999999997     47.374700000000004     50.659850000000006
H      46.338949999999997     46.802499999999995     49.162949999999995
H      49.423950000000005     46.798099999999991     50.028949999999995
H      49.797150000000002     48.262100000000004     50.293650000000000
H      46.430650000000000     49.699799999999996     49.201750000000004
H      45.367850000000004     49.146299999999997     48.262749999999997
H      50.632149999999996     47.125799999999998     47.595749999999995
H      46.000450000000001     48.308199999999999     46.108149999999995
H      49.972549999999998     46.938599999999994     45.072850000000003
H      47.627449999999996     47.074500000000000     44.461550000000003
