21

C      47.426449999999996     50.420249999999996     47.076399999999992
C      48.934650000000005     50.235849999999999     47.221700000000006
C      46.867650000000005     49.674849999999999     48.431800000000003
C      49.503450000000001     48.899549999999998     47.391299999999994
C      47.303250000000006     48.196449999999999     48.432700000000004
C      48.618449999999996     47.915450000000000     47.784399999999998
C      46.376550000000002     47.142550000000000     48.761500000000005
C      49.226350000000004     46.562249999999999     47.710600000000007
C      46.851150000000004     45.730950000000000     48.601199999999999
C      48.269450000000006     45.537849999999999     48.145100000000006
H      46.853350000000006     51.418650000000000     46.764699999999998
H      47.094850000000001     49.550849999999997     46.547599999999996
H      49.778350000000003     50.968749999999993     46.499299999999998
H      49.277150000000006     50.903649999999999     48.015999999999998
H      45.714650000000006     49.901550000000000     48.290399999999998
H      46.980450000000005     50.069850000000002     49.500700000000002
H      50.392150000000001     48.573149999999998     47.079000000000001
H      45.607849999999999     47.430950000000003     49.386800000000001
H      50.337350000000001     46.145550000000000     47.330000000000005
H      45.999050000000004     45.045850000000002     48.173300000000005
H      48.447749999999999     44.581350000000000     47.921100000000003
