22

C      47.268619999999991     50.296529999999997     49.378399999999999
C      46.269279999999995     50.040019999999998     48.273100000000007
C      48.447980000000001     49.435870000000001     48.953600000000002
C      46.038249999999998     48.461434000000004     47.939900000000002
C      48.580119999999994     48.330186000000005     48.017199999999995
C      47.365179999999995     47.740996800000005     47.461800000000004
C      49.692839999999997     47.466390000000018     47.652200000000001
C      47.135189999999994     46.627990000000004     46.534200000000006
C      49.582629999999995     46.247389999999989     46.878200000000000
C      48.325359999999996     45.637090000000001     46.210299999999997
H      46.957649999999994     49.846789999999999     50.377400000000002
H      47.569530000000000     51.454610000000002     49.454100000000004
H      46.705230000000000     50.507080000000002     47.411999999999999
H      45.449449999999999     50.690539999999999     48.425000000000004
H      49.455389999999994     50.103430000000003     48.846200000000003
H      48.596069999999997     48.813960000000002     49.899600000000000
H      45.532639999999994     47.958513000000004     48.806800000000003
H      45.226879999999994     48.516503000000000     47.266900000000000
H      50.773120000000006     47.910437000000002     47.891900000000000
H      46.392329999999994     46.227490000000010     45.899499999999996
H      50.334989999999998     45.374790000000012     46.832400000000000
H      48.391939999999998     44.545389999999998     45.622599999999998
