6

C      47.725499999999997     47.496149999999993     48.255799999999994
C      48.270900000000005     48.529350000000001     47.699899999999992
H      48.113999999999997     46.455050000000000     48.436399999999999
H      46.858399999999996     47.630750000000006     49.052000000000000
H      49.141600000000004     48.654749999999993     46.948000000000000
H      47.711100000000009     49.544950000000000     48.098199999999999
