22

C      47.307099999999998     49.988599999999991     49.361149999999995
C      48.942800000000005     50.217399999999991     49.339749999999995
C      46.495100000000001     49.320199999999993     47.975250000000003
C      49.514400000000009     49.175599999999996     48.558449999999993
C      47.353399999999993     48.040399999999998     47.498149999999995
C      48.689500000000002     48.027300000000004     47.893349999999998
C      46.929000000000002     46.992299999999993     46.610150000000004
C      49.405500000000004     46.827599999999997     47.735749999999996
C      47.611800000000002     45.703899999999997     46.443150000000003
C      48.857800000000005     45.551700000000004     47.178550000000001
H      46.749300000000005     50.856699999999996     49.963049999999996
H      46.855800000000002     49.439900000000002     50.063649999999996
H      49.051000000000002     51.423600000000000     49.230949999999993
H      49.466800000000006     50.264599999999994     50.254649999999998
H      45.999300000000005     50.033700000000003     47.203350000000000
H      45.577100000000002     48.840499999999999     48.673149999999993
H      50.173100000000005     48.670600000000000     49.249150000000000
H      50.154100000000014     49.504399999999997     47.634450000000001
H      45.934800000000003     46.990800000000000     46.706149999999994
H      50.422899999999998     46.666699999999999     48.160950000000000
H      47.323000000000008     44.881399999999992     45.745350000000002
H      49.540400000000005     44.576400000000000     47.408349999999999
