16

C      49.229149999999990     50.882249999999985     47.898004449999995
C      47.841549999999998     49.298749999999998     49.243314450000000
C      47.989249999999998     50.279949999999999     48.181274450000004
C      47.467149999999997     48.904849999999996     47.928694450000002
C      47.159050000000001     49.972449999999995     47.038574449999999
C      47.277049999999996     47.534849999999992     47.651654450000002
C      47.369449999999993     46.551649999999995     48.711364450000005
C      46.609850000000002     45.331450000000004     48.417374449999997
H      47.397849999999998     50.217050000000000     46.103835549999999
H      49.708349999999989     51.053249999999991     46.818283450000003
H      49.717250000000000     51.563450000000003     48.505354449999999
H      48.526249999999997     48.779049999999998     49.896164450000001
H      46.468849999999996     44.436549999999997     48.981574450000004
H      47.081550000000000     47.117949999999993     46.673346450000004
H      47.684649999999998     46.769750000000002     49.720374450000008
H      46.282750000000000     45.420649999999995     47.502474450000001
