107

C      47.183199999999999     54.728799999999993     45.685699999999997
C      45.151800000000001     54.757499999999993     44.246600000000001
C      50.686000000000000     51.090500000000006     42.634300000000003
C      50.239799999999995     55.662899999999993     44.316900000000004
C      45.803400000000003     51.408699999999996     44.317399999999999
C      50.745500000000000     52.232900000000001     43.302400000000006
C      50.478100000000005     54.357600000000005     44.143700000000003
C      49.268200000000000     50.592500000000001     42.952200000000005
C      45.163199999999996     52.471800000000002     44.935900000000004
C      46.752600000000008     50.304400000000001     41.989900000000006
C      45.993000000000002     49.912599999999998     44.314600000000006
C      49.624900000000004     53.251700000000000     43.541300000000000
C      46.827100000000009     50.752399999999994     43.417700000000004
C      48.139800000000001     51.423800000000000     43.387500000000003
C      45.889199999999995     53.754800000000003     45.027000000000001
C      47.408999999999999     53.700500000000005     44.786000000000001
C      48.347900000000003     52.821300000000008     43.941700000000004
C      43.869700000000002     52.591400000000007     45.505400000000002
C      44.248600000000003     47.995300000000000     44.258600000000001
C      45.399300000000004     48.643000000000001     44.778200000000005
C      52.265999999999998     52.594899999999996     43.320100000000004
C      52.915799999999997     56.932300000000012     44.118000000000002
C      52.945399999999999     55.701599999999999     43.582000000000001
C      45.406500000000001     47.198499999999996     44.602700000000006
C      51.593700000000005     55.207400000000007     43.952000000000005
C      42.689799999999998     47.737200000000001     44.658600000000000
C      43.367700000000006     53.584599999999995     46.691800000000001
C      51.775500000000001     50.054299999999998     43.069700000000005
C      48.043900000000001     40.053300000000007     50.994600000000013
C      47.978900000000003     44.697800000000001     47.044300000000000
C      46.513900000000000     44.193399999999997     46.738999999999997
C      51.374299999999998     40.232299999999995     53.419900000000005
C      50.706300000000006     39.912099999999995     52.097300000000004
C      48.876300000000008     43.750900000000001     47.734400000000001
C      46.163599999999995     43.052199999999999     47.425800000000002
C      52.103800000000000     41.343100000000007     54.297800000000002
C      49.345000000000006     40.394000000000005     51.681900000000006
C      49.291300000000000     42.076400000000007     49.685500000000005
C      46.729800000000004     41.140400000000000     49.099600000000002
C      48.504600000000003     42.766400000000004     48.689000000000000
C      47.018000000000008     42.346199999999996     48.378200000000000
C      46.793100000000003     40.319400000000002     50.247400000000006
C      49.065800000000003     40.971500000000006     50.513299999999994
C      48.472100000000005     45.802000000000007     46.326300000000010
C      47.755800000000001     46.495199999999997     45.370300000000000
C      46.251200000000004     46.269700000000000     45.272200000000005
C      45.728400000000001     45.037199999999999     45.697700000000005
C      51.773600000000009     39.172100000000000     51.525800000000004
C      53.485500000000009     38.909599999999998     53.275799999999997
C      52.547199999999997     39.703100000000006     53.981600000000007
C      50.320399999999999     43.284000000000006     47.376800000000010
C      50.969799999999999     44.661699999999996     47.489300000000000
C      50.124800000000000     45.618099999999998     46.523099999999992
C      44.673800000000007     42.637200000000007     47.103699999999996
C      43.878200000000000     43.328100000000006     46.052800000000012
C      44.418900000000001     44.689700000000002     45.582900000000002
C      45.441200000000002     40.244399999999999     49.377900000000004
C      52.416699999999999     45.259299999999996     46.932799999999993
C      44.216799999999999     41.853899999999996     45.744100000000003
C      42.423499999999997     43.731400000000008     46.686500000000002
C      52.821100000000008     51.262900000000002     43.206600000000002
H      49.379500000000000     56.273500000000013     44.353400000000001
H      48.938499999999998     49.546700000000001     42.807200000000002
H      45.767400000000002     49.871200000000002     41.724200000000003
H      47.491099999999996     49.370699999999999     42.081900000000005
H      43.486300000000007     51.562899999999999     45.418400000000005
H      44.327100000000009     47.783200000000008     43.142300000000006
H      52.547699999999999     53.479200000000006     43.849900000000005
H      53.903200000000005     57.617000000000004     44.110300000000002
H      52.013799999999996     57.190799999999996     44.694300000000005
H      53.717900000000007     55.218599999999995     43.024200000000000
H      42.134800000000006     48.526300000000006     45.335300000000004
H      42.102100000000000     47.835499999999996     43.769700000000000
H      42.625999999999998     46.740800000000007     45.342700000000001
H      43.414999999999999     54.593500000000006     46.288600000000002
H      43.830000000000005     53.200299999999999     47.705500000000008
H      42.310400000000008     53.295600000000007     46.482600000000005
H      52.136900000000004     49.161799999999999     42.359700000000004
H      51.387300000000003     49.556899999999999     43.998699999999999
H      47.253800000000005     50.721400000000003     40.920800000000000
H      53.827900000000007     38.382999999999996     51.255400000000002
H      50.444099999999999     42.279899999999998     49.747400000000006
H      48.499199999999995     47.194400000000002     44.769700000000000
H      51.769300000000008     38.907499999999999     50.510899999999999
H      54.514400000000002     38.758899999999997     53.588500000000003
H      52.644399999999997     39.295699999999997     55.079200000000000
H      50.748100000000001     42.378100000000003     47.984900000000003
H      50.472200000000008     42.815600000000003     46.277000000000001
H      50.860199999999999     44.936900000000009     48.467900000000000
H      50.405600000000000     46.521000000000001     47.219199999999994
H      50.572400000000009     45.830100000000002     45.423400000000001
H      44.265999999999998     42.087699999999998     48.030300000000004
H      43.537500000000001     44.972099999999998     45.079000000000001
H      53.213000000000001     44.504900000000006     47.310800000000000
H      52.668500000000002     46.321700000000007     47.232600000000005
H      52.342000000000006     45.093800000000002     45.899300000000004
H      44.545400000000008     42.092900000000000     44.429100000000005
H      43.407900000000005     41.171599999999998     45.892500000000005
H      41.965300000000006     44.791700000000006     46.327899999999993
H      42.436799999999998     44.018600000000006     47.763300000000008
H      41.485599999999998     43.256000000000000     46.432300000000005
N      53.124299999999998     38.717600000000004     51.945500000000003
O      47.475699999999996     55.696200000000005     46.393700000000003
O      44.781399999999998     55.598299999999995     43.655400000000000
O      44.299500000000002     40.714900000000000     49.559400000000004
O      52.310600000000001     42.469200000000001     54.288100000000000
O      53.993600000000008     51.164900000000003     43.290600000000005
