44

C      48.590199999999996     49.362099999999991     48.118449999999996
C      45.537899999999993     46.092399999999998     46.042950000000005
C      47.805499999999995     45.119799999999998     50.497550000000004
C      47.560400000000001     49.106099999999998     47.025250000000000
C      48.562100000000001     48.591899999999995     49.383749999999992
C      46.170800000000000     47.385999999999996     45.841250000000002
C      47.832399999999993     46.487600000000000     50.778249999999986
C      45.691000000000003     45.181799999999996     47.111949999999993
C      46.817200000000000     44.676000000000002     49.429349999999999
C      46.941599999999994     47.724999999999994     47.201849999999993
C      47.719899999999996     47.413899999999998     49.604649999999992
C      46.484300000000005     45.508700000000005     48.350949999999997
C      47.057500000000005     46.923099999999998     48.349649999999997
C      49.785100000000000     50.191000000000003     47.755549999999999
C      49.577600000000004     51.236999999999995     46.752849999999995
C      48.615999999999985     50.889399999999995     45.806449999999998
C      47.593999999999994     49.838499999999996     45.734549999999999
C      46.593800000000002     49.590699999999998     44.667450000000002
C      46.167500000000004     48.102000000000004     44.585750000000004
C      49.668499999999995     48.910899999999998     50.500349999999997
C      50.970299999999995     49.106800000000000     49.690549999999988
C      50.928999999999988     50.364599999999996     48.864249999999998
C      48.337000000000003     44.003799999999998     51.538349999999994
C      50.556799999999996     51.543199999999999     49.720049999999986
H      44.712500000000006     45.937799999999996     45.282150000000001
H      48.097399999999993     46.780400000000000     51.890549999999990
H      46.575500000000005     43.657299999999999     49.375249999999994
H      48.863000000000000     51.365899999999996     44.882449999999992
H      45.733800000000002     47.727699999999999     43.782849999999996
H      49.985900000000001     48.021200000000000     51.162349999999989
H      49.455699999999993     49.537900000000008     51.324849999999998
H      51.770899999999997     48.389200000000002     50.022850000000005
H      51.079499999999996     48.332400000000000     48.840249999999997
H      51.839900000000000     50.410399999999996     48.409350000000003
H      49.554299999999998     53.043199999999999     46.379850000000005
H      49.455200000000005     51.284700000000001     50.090850000000003
H      50.954999999999998     52.598600000000005     49.223249999999993
H      51.199999999999989     51.451099999999997     50.640849999999986
H      48.016599999999997     42.956800000000001     51.465750000000000
H      44.160100000000000     44.072699999999998     45.437749999999994
O      49.317499999999995     44.186300000000003     52.217150000000004
O      50.356600000000000     52.460999999999999     46.661450000000002
O      46.055599999999998     50.508800000000008     44.103349999999992
S      44.853399999999993     43.564099999999996     46.657449999999997
