25

C      45.756699999999995     45.843099999999993     44.284349999999996
C      48.994799999999998     48.364200000000011     49.901250000000005
C      47.665900000000008     47.773800000000008     50.260149999999996
C      48.310200000000009     46.540600000000012     45.103650000000002
C      45.757400000000004     45.879700000000000     45.865350000000007
C      49.401499999999999     48.210599999999999     48.513450000000006
C      46.932100000000005     46.683500000000009     49.381749999999997
C      49.129599999999996     47.210500000000010     46.141249999999999
C      47.128700000000009     45.850600000000014     45.518950000000004
C      48.684200000000004     47.344000000000008     47.506250000000009
C      47.397400000000005     46.787400000000005     48.071550000000002
C      49.705100000000002     49.408900000000003     50.731250000000003
C      48.900999999999996     49.906500000000008     51.832850000000008
C      47.743499999999997     49.169499999999999     52.047650000000004
C      46.796500000000009     48.312300000000008     51.261250000000004
C      46.552600000000012     46.177500000000009     46.961950000000002
H      48.749600000000001     45.846600000000009     44.401850000000003
H      45.884399999999999     46.516000000000005     49.332149999999999
H      50.091099999999997     47.369800000000012     45.738349999999997
H      50.588099999999997     49.909500000000008     50.556550000000001
H      49.346299999999999     50.410100000000000     52.776850000000010
H      47.043999999999997     49.536200000000008     52.782150000000001
H      45.893400000000000     47.933800000000005     51.425049999999999
O      45.411900000000003     45.589900000000000     43.217849999999999
O      50.478999999999999     48.826800000000006     48.340750000000000
