31

C      47.675549999999987     46.951549999999990     50.385064999999997
C      48.473849999999999     45.945249999999994     47.178304999999995
C      51.738149999999997     44.971750000000000     49.211704999999995
C      48.519649999999992     45.877849999999995     50.597764999999995
C      47.708649999999999     45.979949999999995     45.946055000000001
C      50.714349999999989     45.178849999999997     50.240965000000003
C      50.947049999999997     44.964250000000000     48.075374999999994
C      49.471950000000000     45.549650000000000     49.520924999999991
C      49.644949999999994     45.474950000000000     48.007414999999995
C      46.887049999999995     47.578949999999992     49.327635000000001
C      46.504049999999999     47.931150000000002     47.937614999999994
C      44.972549999999998     49.688050000000004     47.005054999999999
C      47.569249999999997     47.022149999999996     46.970354999999998
C      46.660449999999997     47.828850000000003     50.825464999999994
C      43.948549999999997     48.868349999999992     46.547764999999998
C      47.390949999999997     48.633449999999996     46.613614999999996
C      46.408049999999996     49.379350000000002     47.325935000000001
C      46.850749999999998     50.592950000000002     48.326335000000000
H      52.633950000000006     44.506850000000000     49.350974999999991
H      48.926049999999996     45.607949999999995     51.523964999999990
H      50.756749999999990     44.761249999999997     51.320864999999998
H      51.486950000000000     44.496150000000000     47.210915000000000
H      44.231349999999999     50.539249999999996     47.343035000000000
H      46.759049999999995     48.265349999999998     51.887264999999999
H      46.967049999999993     48.868949999999998     45.686194999999998
H      46.800349999999995     50.125050000000002     49.309534999999997
H      47.920349999999999     50.830550000000002     47.886404999999996
H      46.231349999999999     51.503850000000000     48.282444999999996
H      47.780049999999996     45.071349999999995     44.112735000000001
O      47.928149999999995     46.151849999999996     44.560794999999999
O      43.366049999999994     48.081649999999996     45.961254999999994
