6

C      48.261894999999996     47.723349999999996     47.596944999999991
C      47.615805000000009     48.519749999999995     48.565285000000003
H      47.823805000000007     46.821750000000002     47.018614999999997
H      49.385734999999997     47.824950000000008     47.505134999999996
H      48.179685000000006     49.178249999999998     48.955615000000009
H      46.614265000000003     48.234050000000003     48.981385000000003
