53

C      49.298814999999991     48.443399999999997     48.815849999999990
C      49.793565000000001     47.270000000000003     47.988949999999996
C      44.738705000000010     46.552000000000007     49.468549999999993
C      45.362285000000000     45.211600000000004     49.018550000000005
C      48.003495000000001     48.613800000000005     49.287349999999989
C      48.909315000000007     46.063500000000005     48.319150000000000
C      45.613545000000002     47.606800000000007     49.618350000000007
C      46.727715000000003     44.916000000000004     48.735149999999997
C      47.106755000000007     47.400000000000006     49.229549999999989
C      47.515475000000009     46.161500000000004     48.668349999999997
C      50.179214999999999     49.748600000000003     48.693049999999999
C      51.179825000000008     49.760700000000007     47.796949999999995
C      51.682285000000007     48.593800000000009     46.864049999999999
C      50.977245000000011     47.341200000000008     47.145749999999992
C      43.302055000000010     46.058400000000006     49.909349999999996
C      43.229855000000001     44.632900000000006     49.768749999999997
C      44.420640000000006     44.193000000000005     49.011649999999996
C      49.804195000000007     50.802900000000001     49.407849999999996
C      50.749265000000008     51.899600000000000     49.525750000000002
C      52.090815000000006     52.036899999999996     48.815249999999999
C      52.168465000000012     50.877800000000008     47.959849999999996
C      47.614075000000000     50.011000000000003     49.752449999999996
C      48.762354999999999     50.631500000000010     50.651150000000001
C      49.476505000000017     44.840500000000006     47.593350000000001
C      50.488575000000012     45.127100000000006     46.279749999999993
C      51.523005000000012     46.105000000000004     46.457849999999993
C      52.439855000000009     45.451000000000008     47.594449999999995
C      52.417465000000007     46.176400000000008     45.120449999999998
C      52.711645000000004     49.095900000000007     46.017949999999999
H      45.379755000000003     48.463900000000002     49.894250000000000
H      46.983995000000007     43.952100000000009     48.679049999999997
H      42.687355000000011     46.448300000000003     50.726650000000006
H      42.589954999999989     43.908300000000004     50.126950000000008
H      44.516302000000010     43.305500000000002     48.334049999999998
H      50.666385000000005     52.694499999999998     50.328450000000004
H      52.932985000000002     52.577400000000004     49.053449999999998
H      53.256065000000007     50.988100000000003     47.576149999999998
H      47.354264999999998     50.488800000000005     48.903949999999995
H      46.650735000000012     50.224300000000007     50.127549999999999
H      49.097145000000012     49.872700000000016     51.426349999999999
H      48.382745000000000     51.591900000000003     50.999150000000000
H      48.673665000000000     44.308400000000006     46.993849999999995
H      49.817245000000014     43.883000000000003     47.991149999999998
H      50.929515000000009     44.261400000000009     45.762850000000000
H      49.805925000000002     45.605200000000004     45.477350000000001
H      51.920645000000007     44.919900000000005     48.528050000000000
H      53.228215000000006     46.292100000000005     47.907350000000001
H      53.241165000000009     44.851400000000005     47.337449999999997
H      51.849915000000010     46.989300000000007     44.573650000000001
H      52.367195000000009     45.250300000000003     44.621549999999999
H      53.384675000000016     46.497300000000003     45.149050000000003
H      53.138785000000013     50.102300000000007     46.223749999999995
H      53.410045000000011     48.720400000000005     45.156049999999993
