31

C      49.048449999999995     44.053399999999989     46.468044999999989
C      46.790650000000007     49.173900000000003     46.737024999999996
C      49.820150000000012     50.637900000000002     47.205014999999996
C      48.745850000000004     51.782300000000006     46.842274999999994
C      49.310250000000011     49.168099999999995     47.764854999999990
C      45.809750000000001     45.298500000000004     49.866644999999998
C      48.299750000000003     48.603200000000001     46.707254999999996
C      47.445450000000001     46.317499999999995     48.290694999999992
C      48.052550000000004     47.204499999999996     47.252184999999990
C      47.003450000000001     45.873400000000004     49.664874999999995
C      47.542850000000001     45.991299999999995     46.865284999999993
C      47.797550000000001     45.220600000000005     45.864104999999995
H      49.013550000000002     43.745699999999999     47.387104999999998
H      49.976950000000002     44.572400000000002     46.765314999999994
H      49.399650000000001     43.314099999999996     45.808904999999996
H      46.238750000000003     49.334100000000007     47.715834999999991
H      46.473150000000004     50.104699999999994     46.073974999999997
H      46.261950000000006     48.264300000000006     46.197554999999994
H      48.520850000000003     51.480900000000005     45.818384999999999
H      50.405050000000003     50.315500000000000     46.308414999999997
H      50.794049999999999     50.871799999999993     47.892574999999994
H      47.877350000000007     51.641499999999994     47.223454999999994
H      49.297750000000008     52.685900000000004     47.003234999999997
H      50.243550000000006     48.682900000000004     47.608384999999998
H      48.868050000000004     49.137199999999993     48.702044999999998
H      45.205950000000001     45.044799999999995     50.882385000000006
H      45.370650000000005     44.925200000000004     48.918484999999997
H      48.607050000000001     48.389200000000002     45.691775000000000
H      47.583050000000007     46.194699999999997     50.599034999999994
H      47.115550000000006     44.492800000000003     45.405324999999998
H      47.966750000000005     45.828699999999998     45.117614999999994
