21

C      50.112699999999990     48.315249999999992     46.554949999999991
C      50.206699999999984     46.830150000000003     47.272649999999992
C      49.379799999999989     49.208550000000002     47.578550000000000
C      48.755299999999991     46.383750000000006     47.222149999999992
C      48.266899999999993     48.630350000000007     48.303350000000002
C      47.897399999999990     47.196849999999998     48.026249999999997
C      47.531799999999990     49.352450000000005     49.217949999999995
C      46.581499999999991     46.576850000000007     48.464449999999992
C      46.543199999999999     48.543750000000003     49.878250000000001
C      46.163299999999992     47.202050000000000     49.716649999999994
H      49.697800000000001     48.277650000000008     45.411449999999995
H      51.030799999999999     48.774249999999995     46.336350000000003
H      50.722799999999992     46.857849999999999     48.335850000000001
H      50.922799999999995     46.169750000000008     46.465049999999998
H      50.071799999999996     49.699250000000006     48.412849999999999
H      48.796399999999991     49.947250000000011     47.219850000000001
H      48.303899999999999     45.629450000000006     46.674950000000003
H      47.759399999999999     50.408850000000001     49.581849999999996
H      46.173699999999997     45.591149999999999     48.256449999999994
H      45.866799999999998     49.074150000000003     50.588550000000005
H      44.969200000000001     47.232749999999996     50.010150000000003
