22

C      50.041299999999993     49.001699999999992     49.066224999999989
C      48.949100000000001     50.165499999999994     49.267024999999997
C      50.125600000000006     48.691900000000004     47.465824999999995
C      47.524900000000002     49.646600000000007     49.027224999999994
C      48.851300000000009     47.788899999999998     47.220624999999998
C      47.656900000000007     48.273300000000006     47.927624999999999
C      48.581500000000005     46.763100000000001     46.189324999999997
C      46.344700000000003     47.694299999999998     48.020724999999999
C      47.273499999999999     46.202600000000004     46.125924999999995
C      46.185299999999998     46.695999999999998     46.975424999999994
H      49.504500000000007     48.287800000000004     49.623224999999998
H      50.971599999999995     48.914500000000004     49.622025000000001
H      48.965699999999998     50.314999999999998     50.402825000000000
H      49.224699999999999     50.952799999999996     48.532624999999996
H      50.039000000000001     49.738900000000001     46.912524999999995
H      50.990300000000005     48.175399999999996     47.125924999999995
H      47.315300000000008     49.449700000000007     50.157324999999993
H      46.896200000000007     50.488600000000005     48.672324999999994
H      49.462100000000007     46.260800000000003     45.597175000000000
H      45.425700000000006     48.333399999999997     48.311225000000000
H      47.351600000000005     45.047200000000004     45.641494999999999
H      45.009699999999995     46.459099999999999     47.065024999999999
