79

C      48.368799999999993     40.910649999999990     50.817749999999990
C      48.849400000000003     47.424150000000004     50.763050000000000
C      47.851200000000006     42.226450000000000     51.186349999999997
C      47.840800000000002     46.773350000000001     51.353850000000001
C      49.549900000000008     41.086050000000000     49.981850000000001
C      50.103999999999999     46.769250000000007     50.164049999999996
C      51.322300000000013     47.612450000000003     49.608550000000001
C      47.804900000000004     45.312850000000005     51.517749999999999
C      51.015100000000004     43.109949999999998     49.594249999999995
C      51.331500000000005     44.512450000000001     49.792449999999995
C      49.848100000000002     42.443649999999998     50.044649999999997
C      50.148099999999999     45.400150000000004     50.209249999999990
C      48.922000000000011     43.274450000000002     50.957749999999997
C      48.963800000000006     44.711049999999993     50.878749999999989
C      49.118500000000012     51.233550000000001     47.481549999999991
C      49.545600000000007     52.902650000000001     48.078949999999999
C      46.478400000000008     52.599650000000004     48.768049999999995
C      45.994699999999995     53.770850000000003     48.204149999999991
C      47.699700000000007     50.682749999999992     47.659050000000001
C      48.757600000000011     53.928249999999998     49.014749999999999
C      44.986300000000000     54.762849999999993     47.895750000000000
C      46.745100000000008     51.093449999999997     48.471550000000001
C      47.283299999999997     53.967750000000002     48.670650000000002
C      49.667000000000016     50.437150000000010     46.316150000000000
C      51.169600000000003     51.406150000000004     46.025950000000002
C      51.455800000000011     52.893850000000008     46.420650000000002
C      50.323999999999998     53.676650000000002     47.015149999999998
C      44.949700000000007     52.761550000000007     49.142249999999997
C      49.897300000000001     49.859450000000002     47.626449999999998
C      51.355100000000007     49.987850000000002     48.165349999999997
C      52.015800000000013     48.494250000000001     48.715349999999994
C      52.187900000000013     50.525050000000000     47.037749999999996
C      46.490800000000007     49.779249999999998     47.865949999999991
C      49.455300000000008     48.897449999999999     46.424549999999989
C      49.847099999999998     53.121150000000007     49.610149999999997
C      49.311300000000003     55.332650000000008     48.910449999999990
C      50.398499999999999     55.119650000000000     47.385950000000001
C      52.426700000000011     51.929250000000003     46.703849999999996
C      49.419600000000003     54.606450000000002     46.308249999999994
C      49.288399999999996     51.921250000000001     50.380049999999990
C      49.240899999999996     54.964849999999998     44.870149999999988
C      47.679000000000002     55.041449999999990     44.604349999999990
C      52.734099999999998     49.201950000000004     46.379149999999989
C      52.247699999999995     42.333849999999991     49.181849999999990
C      43.379500000000007     55.184049999999992     47.402749999999990
H      47.842500000000001     39.905149999999999     51.117049999999999
H      48.712800000000016     48.604350000000004     50.872949999999996
H      46.889499999999998     42.369450000000008     51.358849999999997
H      47.144099999999995     47.361449999999998     51.645750000000000
H      50.068700000000007     40.290149999999997     49.387650000000001
H      47.154499999999999     44.641150000000003     51.908549999999998
H      52.319299999999998     44.960050000000003     49.796349999999997
H      44.433999999999997     52.071249999999999     48.615049999999989
H      51.529200000000003     50.702449999999999     48.884549999999997
H      52.789500000000004     47.949550000000009     48.047049999999992
H      46.416499999999999     48.707850000000001     47.556249999999999
H      48.314800000000005     48.894350000000003     45.977249999999991
H      50.379400000000004     48.153849999999998     45.773249999999997
H      50.712200000000010     53.588349999999998     49.934849999999990
H      49.777200000000008     55.698250000000002     50.134250000000002
H      48.479799999999997     56.045849999999994     48.694749999999992
H      51.267600000000002     55.855049999999999     47.187449999999991
H      48.424800000000005     54.572949999999999     46.923949999999998
H      48.900100000000009     52.470950000000002     51.300350000000002
H      50.082599999999999     51.173650000000002     50.308249999999994
H      50.016400000000004     54.468150000000001     44.228549999999991
H      49.845900000000000     56.094850000000001     44.626550000000002
H      47.088499999999996     55.107550000000003     45.630649999999996
H      47.537500000000009     56.025649999999999     44.091450000000002
H      47.408000000000001     54.075450000000011     44.174050000000001
H      53.596800000000002     49.095649999999999     46.976849999999992
H      53.102000000000004     49.613250000000001     45.342849999999991
H      52.114500000000007     48.097349999999999     46.461949999999995
H      48.286400000000000     51.513350000000010     50.013050000000000
H      44.390299999999996     53.338250000000009     49.902149999999999
O      52.160800000000009     48.330950000000009     50.230550000000001
O      44.845799999999997     55.722349999999999     47.091649999999994
O      53.345700000000008     42.167850000000008     48.897649999999992
O      42.403199999999998     54.903250000000000     47.012949999999996
