22

C      46.689199999999992     48.178349999999995     45.488849999999999
C      46.696999999999989     49.354450000000014     46.232650000000000
C      47.465099999999993     47.017849999999996     46.322650000000003
C      46.832299999999996     49.636750000000006     47.762350000000005
C      48.045899999999996     47.226849999999999     47.769849999999998
C      47.824999999999996     48.574850000000012     48.411049999999996
C      49.120999999999995     46.427850000000007     48.400849999999998
C      48.225600000000000     49.058149999999998     49.790349999999997
C      49.428699999999992     46.842250000000007     49.735450000000007
C      48.985799999999998     48.010850000000005     50.439550000000004
H      45.762799999999999     47.788350000000008     45.013550000000002
H      47.123199999999997     48.437849999999997     44.522849999999998
H      47.617500000000007     49.940250000000006     45.783549999999998
H      46.027499999999996     50.166050000000013     45.745950000000001
H      48.074799999999996     46.286749999999998     45.367650000000005
H      46.609999999999999     46.302350000000004     46.222250000000010
H      47.265400000000000     50.537649999999999     48.068550000000009
H      45.979199999999999     49.578350000000000     48.135650000000005
H      49.338799999999992     45.462350000000001     47.826450000000001
H      48.007599999999996     50.066950000000006     49.975050000000003
H      50.237200000000001     46.186549999999997     50.449850000000005
H      49.048699999999997     48.286749999999998     51.477150000000002
