22

C      49.438149999999993     48.510795000000002     46.163049999999991
C      48.151350000000001     49.429024999999996     45.751050000000006
C      49.738949999999996     48.825825000000009     47.702349999999996
C      47.057049999999997     48.635095000000007     45.539150000000006
C      48.671450000000000     47.990847000000002     48.630049999999997
C      49.044049999999991     46.819975000000014     49.379850000000005
C      47.430749999999996     48.599125000000001     48.376450000000006
C      47.882249999999992     46.385075000000015     50.195350000000005
C      46.409550000000003     48.064676000000006     49.285449999999997
C      46.434149999999995     46.830875000000034     50.014250000000004
H      50.213050000000003     48.984665000000007     45.565550000000002
H      49.399149999999999     47.487242000000009     45.981449999999995
H      47.246149999999993     47.548741000000007     45.679050000000004
H      48.167849999999994     50.527225000000001     45.792050000000003
H      49.122449999999994     49.760415000000009     47.831050000000005
H      50.706250000000004     48.666195000000002     48.180549999999997
H      49.977349999999994     46.195975000000018     49.519850000000005
H      46.011949999999992     48.896844999999999     45.233149999999995
H      47.139850000000003     49.597625000000008     47.896749999999997
H      47.913450000000005     45.472774999999999     50.766850000000005
H      45.293749999999996     48.157860999999997     48.954949999999997
H      45.578749999999992     46.297575000000009     50.329650000000001
