46

C      47.425150000000002     47.207099999999990     47.403614999999981
C      48.146549999999998     47.836699999999993     46.132394999999981
C      47.866050000000008     51.780199999999994     48.680204999999987
C      47.470050000000008     48.062200000000004     48.504744999999986
C      48.817150000000005     49.048400000000001     46.078924999999984
C      47.535950000000007     50.619999999999997     49.185104999999993
C      48.494950000000010     51.573999999999998     47.341214999999984
C      47.808450000000001     49.477899999999991     48.177594999999982
C      48.246850000000002     50.195400000000006     46.917334999999987
C      46.964850000000006     45.767899999999997     47.552854999999994
C      47.286250000000003     45.043499999999995     46.345604999999985
C      47.823250000000009     45.651399999999995     44.974954999999994
C      48.251449999999998     46.908500000000004     44.948255000000003
C      46.687850000000005     45.070000000000000     48.893864999999984
C      46.353749999999998     43.759200000000000     48.522454999999994
C      46.479750000000003     43.005899999999997     47.300294999999984
C      46.750850000000007     43.696599999999997     46.106794999999984
C      46.988350000000004     47.439000000000000     50.001764999999978
C      47.272250000000007     45.876500000000000     50.010124999999988
C      49.841250000000009     52.199500000000000     47.660464999999988
C      49.887950000000011     53.705100000000002     47.920634999999983
C      46.551850000000009     45.622900000000001     51.415564999999987
C      45.886150000000008     42.136800000000001     48.500124999999983
C      47.823150000000005     52.660799999999995     46.279494999999983
H      47.742850000000011     52.731600000000000     49.280524999999983
H      47.315550000000009     50.162499999999994     50.153534999999977
H      47.720050000000008     44.579700000000003     44.478054999999976
H      48.349950000000000     47.226999999999997     43.778655000000015
H      46.669050000000006     43.293300000000002     45.057843399999982
H      45.885750000000009     47.642200000000003     49.990384999999975
H      47.353250000000010     47.995500000000007     50.864594999999980
H      48.245049999999999     45.437599999999996     50.314914999999985
H      50.436750000000011     51.369699999999995     48.102944999999991
H      50.629350000000009     52.053399999999996     46.851384999999986
H      50.868749999999999     54.061000000000007     48.298364999999990
H      50.141449999999999     54.050600000000003     46.863004999999987
H      48.963650000000008     54.425899999999999     47.802984999999993
H      45.916950000000007     44.732199999999999     51.266364999999993
H      46.787450000000000     46.483100000000000     52.060914999999987
H      47.472850000000001     45.186399999999999     52.221344999999985
H      46.858850000000011     41.726599999999998     49.182164999999983
H      45.131250000000001     41.574100000000001     48.236944999999977
H      47.215049999999998     52.300399999999996     45.418634999999988
H      47.037650000000006     53.328800000000001     46.961054999999988
H      48.317350000000012     53.617900000000006     46.044964999999983
O      50.034750000000010     49.186700000000002     45.881560999999984
