21

C      47.328064999999988     46.022049999999993     49.767209999999992
C      48.246674999999996     47.513149999999996     49.936830000000015
C      47.849575000000002     45.432249999999996     48.571470000000005
C      47.879234999999994     48.655850000000001     46.104410000000001
C      47.891484999999996     47.713249999999988     47.347451000000007
C      48.415935000000005     48.305649999999986     48.572320000000005
C      47.878254999999996     46.283449999999988     47.409013999999999
C      49.054555000000008     49.658349999999999     48.441040000000001
C      48.391894999999998     49.917249999999996     46.160110000000003
C      49.190955000000002     50.493749999999991     47.323650999999998
H      47.405394999999999     45.245749999999987     50.922989999999999
H      46.235545000000002     46.230549999999994     49.694780000000009
H      48.088594999999998     48.323349999999991     50.900559999999999
H      49.336055000000002     47.176849999999988     49.930870000000013
H      47.120504999999994     44.527850000000001     48.355379999999997
H      48.564445000000006     44.529449999999997     48.328199999999995
H      47.443725000000001     48.152049999999988     45.295109999999994
H      47.571304999999995     45.710649999999987     46.590010000000007
H      49.432654999999997     49.842249999999993     49.429969999999997
H      48.485444999999999     50.112049999999996     45.077010000000001
H      49.764454999999998     51.472149999999999     47.399083000000005
