12

C      49.212099999999985     47.180999999999990     47.871344999999991
C      47.924399999999991     46.726399999999998     47.375144999999996
C      46.640699999999995     47.452399999999997     47.255724999999998
C      46.880499999999998     48.849599999999995     47.293765000000000
C      48.111699999999999     49.504399999999990     47.843274999999998
C      49.268199999999993     48.635700000000000     48.075215000000000
C      48.374200000000002     45.947099999999999     48.199994999999994
H      47.814999999999998     45.326599999999999     48.934835000000000
H      45.725200000000001     47.054000000000002     47.065165000000000
H      45.886099999999999     49.383799999999994     47.439245000000000
H      48.057000000000002     50.673400000000001     47.995974999999994
H      50.274799999999999     49.322699999999998     48.255984999999988
