28

C      48.272099999999988     48.083849999999991     45.875399999999985
C      48.966700000000003     48.042050000000003     44.518699999999995
C      49.247200000000007     48.233550000000008     46.934899999999999
C      49.050500000000000     49.727950000000007     47.540400000000005
C      48.265600000000006     47.001950000000008     46.959599999999995
C      46.315600000000003     45.993549999999999     48.239600000000010
C      47.484999999999999     47.019450000000006     51.041200000000003
C      47.491299999999995     46.773049999999998     48.479299999999995
C      46.707300000000004     48.074650000000005     51.131399999999999
C      48.048600000000008     46.405450000000002     49.842400000000012
C      46.160899999999998     48.517049999999998     49.871600000000001
C      46.460099999999997     47.880449999999996     48.517299999999992
H      50.102999999999994     47.823050000000009     44.387799999999999
H      47.497000000000000     48.954250000000002     45.784300000000002
H      48.320400000000006     47.338949999999997     44.031999999999996
H      49.102999999999994     49.190849999999998     43.964799999999997
H      49.591800000000006     50.525649999999999     46.929800000000000
H      50.442499999999995     47.792249999999996     46.890100000000004
H      49.508099999999999     50.084550000000007     48.598799999999997
H      48.090800000000002     49.948949999999996     48.050299999999993
H      48.693600000000004     46.056449999999998     46.716400000000007
H      48.104799999999997     46.557249999999996     51.729699999999994
H      46.205200000000005     45.616950000000003     47.205399999999997
H      45.941000000000003     45.519649999999999     49.165199999999999
H      46.482100000000003     48.419150000000002     52.035200000000003
H      48.262500000000003     45.474350000000001     50.159700000000001
H      45.557500000000005     49.484350000000006     49.854100000000003
H      46.549899999999994     48.583550000000002     47.614000000000004
