22

C      48.693349999999995     48.768274999999988     45.029364999999984
C      47.521850000000001     49.227154999999996     45.808365000000002
C      49.471750000000000     47.608764999999998     46.035064999999996
C      46.086349999999996     47.663064999999996     50.753565000000002
C      48.565950000000001     47.806604999999998     47.216464999999992
C      47.560249999999996     49.001984999999998     47.436064999999992
C      47.891949999999994     46.586784999999992     47.671765000000001
C      46.840249999999997     48.971905000000000     48.568565000000000
C      47.121449999999996     46.585714999999993     48.926764999999996
C      47.040050000000008     47.816414999999992     49.489564999999992
H      48.731250000000003     48.407584999999997     43.975464999999993
H      49.217849999999999     49.593534999999996     44.993964999999996
H      46.539450000000002     48.851294999999993     45.345464999999997
H      47.192750000000004     50.366975000000004     45.736764999999998
H      50.725449999999995     47.863774999999997     46.270564999999998
H      49.241450000000000     46.773794999999993     45.284865000000003
H      46.769850000000005     47.976074999999994     52.024535000000007
H      45.274550000000005     48.610494999999993     50.547964999999998
H      48.415549999999996     46.006924999999995     47.046264999999998
H      46.412350000000004     49.971704999999993     48.864865000000002
H      46.672650000000004     45.633024999999996     49.298764999999996
H      45.570850000000007     46.788684999999994     50.682565000000004
