22

C      48.356049999999996     49.026749999999993     45.569399999999987
C      48.132650000000005     47.597850000000001     45.556699999999999
C      48.595949999999995     49.449549999999995     47.151940000000003
C      47.087749999999993     46.781649999999999     46.475577000000008
C      48.507849999999998     48.299050000000001     48.199270000000006
C      47.610449999999993     47.118650000000002     47.995320000000007
C      49.279750000000000     48.333950000000002     49.470000000000006
C      47.028249999999993     46.522050000000000     49.168590000000016
C      48.947349999999993     47.339750000000002     50.531759999999998
C      47.821450000000006     46.460149999999999     50.462940000000010
H      47.641249999999992     49.781650000000006     45.243500000000004
H      49.220850000000006     49.399850000000001     44.916300000000000
H      48.995950000000001     47.173750000000005     45.443199999999997
H      47.843049999999998     47.579250000000002     44.470899999999993
H      49.567550000000004     50.145450000000004     47.130190000000006
H      48.034349999999996     50.325749999999999     47.331720000000011
H      46.068750000000001     47.129850000000005     46.420702000000006
H      46.950749999999992     45.674250000000001     46.469409000000006
H      49.931249999999999     49.043150000000004     49.786539999999995
H      46.168450000000000     45.858750000000001     49.140060000000005
H      49.449149999999996     47.352950000000000     51.529100000000007
H      47.352349999999994     45.891150000000003     51.197540000000011
