22

C      48.173649999999995     47.907159999999990     50.837249999999990
C      47.356750000000005     46.915905000000002     50.099549999999994
C      48.800049999999999     48.906089999999999     49.836949999999995
C      48.147350000000003     46.086860000000009     48.979149999999997
C      48.900049999999993     48.572539999999996     48.351349999999996
C      48.546349999999990     47.210048999999998     47.916049999999998
C      48.760649999999998     49.485790000000001     47.306549999999994
C      48.574349999999995     46.743229999999997     46.536249999999995
C      48.685350000000000     49.132489999999997     45.916149999999995
C      48.793650000000000     47.759160000000001     45.501649999999998
H      48.960849999999994     47.297311999999998     51.411949999999997
H      47.774749999999997     48.626659999999994     51.482450000000000
H      47.180049999999994     46.277360000000023     51.047950000000000
H      46.364850000000004     47.359347999999997     49.677349999999997
H      49.635149999999996     49.524560000000001     50.248549999999994
H      48.044849999999997     49.840919999999990     49.724249999999998
H      49.001350000000002     45.705360000000006     49.463149999999999
H      47.549149999999997     45.344360000000002     48.401750000000000
H      48.817750000000004     50.655639999999998     47.594149999999999
H      48.410249999999991     45.710859999999997     46.418349999999997
H      48.790850000000006     49.994840000000003     45.290450000000000
H      48.800349999999995     47.518839999999997     44.517550000000000
