68

C      51.880119999999991     51.784999999999989     47.576849999999993
C      52.539219999999993     52.472399999999993     46.293650000000000
C      53.050269999999990     51.195300000000003     45.580350000000003
C      53.763700000000007     49.185099999999991     43.944049999999997
C      51.798119999999997     50.461900000000000     45.041750000000000
C      51.485390000000002     48.862700000000004     43.136049999999997
C      52.353770000000004     49.534800000000004     44.052149999999997
C      49.992379999999997     49.030400000000000     43.063350000000000
C      51.692779999999999     47.982699999999994     42.035649999999997
C      49.159390000000002     48.126700000000000     42.324350000000003
C      50.353630000000003     47.558399999999992     41.601649999999999
C      46.090049999999998     46.613600000000005     52.151449999999990
C      44.894489999999998     47.050699999999992     51.167549999999999
C      49.082160000000002     49.456199999999995     49.896250000000002
C      48.050680000000000     49.917100000000005     48.876049999999999
C      47.341090000000001     47.733699999999999     52.533949999999997
C      45.117939999999997     48.114699999999999     50.132150000000003
C      49.112690000000001     48.718900000000005     51.107050000000008
C      46.655580000000000     49.667500000000004     49.363950000000003
C      47.650979999999997     48.594499999999996     51.243050000000004
C      46.470669999999998     48.770600000000002     50.425649999999997
C      45.675339999999998     45.186599999999999     52.587750000000007
C      44.451679999999996     44.524699999999996     52.190850000000005
C      43.413305000000001     45.143500000000003     51.327350000000003
C      43.611354999999996     46.427700000000002     50.750449999999994
C      50.686669999999999     50.870800000000003     48.653149999999989
C      50.446069999999999     49.995499999999993     49.729349999999990
C      49.739089999999997     51.051199999999994     47.551249999999996
C      48.469119999999997     50.553699999999992     47.649250000000002
C      48.269629999999999     44.580600000000004     52.670150000000000
C      46.882880000000000     44.403599999999997     53.170850000000009
C      46.226009999999995     47.499200000000002     53.666949999999993
C      49.386209999999998     43.647499999999994     52.692549999999997
C      48.925970000000000     47.769400000000005     54.303849999999990
C      42.128900000000016     44.204599999999999     50.793650000000007
H      53.433999999999990     53.077100000000002     46.636550000000000
H      51.927560000000000     53.275700000000001     45.596849999999996
H      53.855199999999989     50.715099999999993     46.140250000000002
H      53.685699999999990     51.671999999999997     44.745649999999998
H      54.492399999999996     49.738600000000005     44.454149999999998
H      54.005299999999998     48.342799999999997     43.254150000000003
H      50.821899999999999     51.188900000000004     44.734049999999996
H      51.285460000000000     49.926800000000000     45.896450000000002
H      49.478380000000001     49.424399999999991     43.961050000000000
H      52.600130000000000     47.625799999999998     41.499450000000003
H      48.331890000000001     47.842600000000004     42.418149999999997
H      50.188539999999996     46.615200000000002     41.129950000000001
H      44.134160000000001     48.659700000000001     49.417449999999995
H      50.074280000000002     48.480900000000005     51.618549999999992
H      45.745440000000002     49.844600000000000     48.595849999999999
H      44.171197999999997     43.482399999999998     52.090150000000001
H      42.813299999999991     47.032399999999996     50.186250000000008
H      51.237409999999997     49.842299999999994     50.477350000000001
H      49.916530000000002     51.557999999999993     46.473849999999999
H      47.775880000000001     50.483400000000003     46.651150000000001
H      48.665389999999995     45.227900000000005     51.813049999999997
H      46.771560000000001     43.534899999999993     53.947150000000001
H      45.120060000000002     47.411299999999997     53.678549999999994
H      46.432969999999997     47.919399999999996     54.552550000000004
H      50.282899999999998     43.406899999999993     52.007449999999999
H      48.794849999999997     42.724299999999999     53.113250000000001
H      48.208260000000003     48.440299999999993     54.670150000000000
H      49.766019999999997     47.365700000000004     54.870049999999999
H      42.596100000000007     43.474999999999994     49.838649999999994
H      41.507600000000004     43.855400000000003     51.551049999999996
H      41.641200000000005     44.760300000000001     49.837850000000003
N      48.677140000000001     47.205600000000004     53.125049999999995
O      52.235660000000003     51.037199999999999     48.457949999999990
