22

C      47.783034999999998     48.460749999999990     50.471490499999980
C      49.294744999999992     47.775549999999996     50.623490499999988
C      46.882575000000003     47.349949999999993     49.573990499999994
C      49.632795000000002     47.843549999999993     49.012390499999995
C      47.194315000000003     47.675049999999999     48.193690499999988
C      48.518945000000002     48.086349999999996     47.898490499999994
C      46.221005000000005     47.679249999999996     47.159990499999992
C      48.763175000000004     48.855949999999993     46.759890499999983
C      46.698284999999998     48.198449999999994     45.770590499999983
C      47.974504999999994     48.705950000000001     45.565690499999988
H      48.205005000000000     49.662750000000003     50.151590499999983
H      46.999144999999999     48.371949999999998     51.331534500000004
H      48.944944999999990     46.759050000000002     50.940090499999997
H      50.049464999999998     48.402749999999997     51.361809500000007
H      45.780744999999996     47.149950000000004     49.935490499999986
H      47.366444999999999     46.337249999999997     49.922190499999985
H      50.296194999999997     46.888750000000002     48.911590499999988
H      50.785235000000000     48.262950000000004     48.912190499999994
H      45.214765000000000     47.584049999999991     47.309490499999995
H      49.681674999999998     49.325049999999990     46.688490499999986
H      46.161254999999997     48.127049999999997     44.854990499999985
H      48.417474999999996     48.983849999999990     44.638190499999993
