29

C      47.326199999999986     49.224999999999994     50.167149999999992
C      46.745719999999992     47.394500000000008     48.387349999999998
C      48.591579999999993     48.444500000000005     46.582549999999998
C      47.990529999999993     47.409199999999998     45.694349999999993
C      46.088571999999985     49.143700000000010     50.692449999999987
C      45.468388999999988     46.744500000000002     48.776449999999997
C      48.557339999999982     48.990800000000007     47.974549999999994
C      46.585039999999992     45.442899999999995     46.461349999999996
C      47.623149999999981     48.475099999999998     48.940849999999998
C      46.237765999999993     46.284599999999998     47.596950000000000
C      48.429369999999992     48.049700000000001     50.132249999999999
C      49.842859999999988     48.465600000000009     50.243950000000005
C      50.268259999999984     49.596699999999998     51.084049999999998
C      51.013849999999991     49.234600000000000     49.961549999999995
C      49.622359999999986     47.543199999999999     43.941649999999996
C      49.140999999999991     48.115800000000007     45.172949999999993
C      47.544409999999985     45.946100000000001     45.426949999999998
C      49.989489999999989     50.539800000000000     52.319849999999995
H      44.359090000000009     46.891400000000004     48.960749999999997
H      49.178569999999979     49.878600000000006     48.023049999999998
H      46.211369999999988     44.391700000000000     46.347349999999999
H      48.049629999999993     47.040900000000008     50.570549999999990
H      51.640909999999991     49.766400000000004     49.280549999999998
H      47.597699999999989     45.334900000000005     44.566949999999999
H      50.178339999999992     51.608300000000000     51.893749999999997
H      49.118979999999979     50.109800000000007     53.080850000000005
H      50.923629999999989     50.697699999999998     52.917650000000002
O      45.079489999999979     49.230800000000002     51.135649999999991
O      50.010059999999982     47.126600000000010     42.919149999999995
