21

C      45.989249999999984     47.833899999999993     48.178199999999990
C      45.792050000000003     49.058300000000003     47.204200000000000
C      46.020250000000004     46.587699999999998     47.286799999999999
C      47.273850000000010     49.001099999999994     46.431100000000001
C      47.284950000000009     47.340299999999999     48.095399999999998
C      48.235950000000003     48.130200000000002     47.325400000000002
C      47.875450000000001     46.601299999999995     49.233300000000000
C      49.571150000000003     48.054699999999997     47.622199999999992
C      49.275050000000007     46.663799999999995     49.551400000000001
C      50.165649999999999     47.547300000000000     48.844899999999996
H      46.600149999999999     46.579400000000000     46.318699999999993
H      45.438850000000002     47.941699999999997     49.099699999999999
H      44.845749999999995     49.313699999999997     46.756699999999995
H      45.853750000000005     50.046599999999998     47.750900000000001
H      45.127949999999998     46.323599999999999     47.387799999999999
H      47.149950000000004     48.658599999999993     45.406800000000004
H      47.529550000000000     50.115600000000001     46.192700000000002
H      47.336449999999999     45.884399999999999     49.913200000000003
H      50.226849999999999     48.582300000000004     47.003199999999993
H      49.599750000000000     46.339900000000000     50.593199999999996
H      51.154250000000005     47.698300000000003     49.025400000000005
