14

C      47.029849999999989     49.272099999999995     48.292749999999991
C      49.104849999999999     46.514600000000002     48.661549999999991
C      49.214150000000004     48.151100000000000     48.139449999999997
C      48.153149999999997     48.824900000000000     47.292049999999996
H      46.416750000000000     50.111899999999999     48.109249999999996
H      47.554349999999999     49.262599999999999     49.279750000000000
H      46.148849999999996     48.423200000000001     48.199050000000000
H      48.958550000000002     45.888100000000001     48.039349999999999
H      48.436749999999996     46.506200000000000     49.439149999999998
H      49.851150000000004     46.083300000000001     49.500349999999997
H      49.685949999999991     48.783900000000003     48.920749999999998
H      48.543049999999994     49.773600000000002     46.780250000000002
H      49.774150000000006     48.258200000000002     47.261749999999999
H      47.832650000000001     48.064900000000002     46.499650000000003
