22

C      50.626099999999994     47.001349999999988     48.175415000000001
C      49.695099999999996     46.136649999999996     47.426485000000000
C      49.914999999999992     48.296650000000000     48.671414999999996
C      48.255600000000001     46.036649999999995     48.220415000000003
C      48.423999999999992     48.586449999999992     48.039365000000004
C      47.689200000000000     47.400949999999987     47.814684999999997
C      47.759500000000003     49.858449999999998     47.811504999999997
C      46.273799999999994     47.505850000000002     47.746634999999998
C      46.337199999999996     49.889749999999999     47.458034999999995
C      45.594899999999996     48.641150000000003     47.090424999999996
H      51.497000000000000     47.306750000000001     47.513204999999999
H      50.948899999999995     46.207549999999998     49.103814999999997
H      50.007199999999997     45.156450000000000     47.134884999999997
H      49.552099999999996     46.529149999999994     46.379284999999996
H      49.893499999999989     48.113350000000004     49.620715000000004
H      50.553899999999999     49.258049999999990     48.922815000000000
H      48.439300000000003     46.002849999999995     49.242114999999998
H      47.599400000000003     45.358249999999998     47.892994999999999
H      48.266399999999990     50.733449999999998     48.180115000000001
H      45.777199999999993     46.582149999999999     47.815285000000003
H      45.930599999999998     50.843550000000000     47.519835000000000
H      44.503000000000000     48.532649999999997     46.956715000000003
