6

C      48.088699999999996     48.339049999999993     47.408999999999999
C      48.423600000000008     47.705050000000000     48.655100000000004
H      47.754800000000003     47.843850000000003     46.483199999999997
H      47.431800000000003     49.377049999999997     47.397500000000008
H      47.602800000000002     47.627450000000003     49.516800000000003
H      48.568199999999997     46.622950000000003     48.320300000000003
