22

C      50.027599999999985     49.361349999999995     46.840649999999997
C      49.938999999999993     47.783650000000002     46.760750000000002
C      48.964100000000002     49.816050000000004     48.007450000000006
C      49.545500000000004     46.800850000000004     47.820549999999997
C      48.206299999999999     48.602350000000001     48.704949999999997
C      48.514700000000005     47.247550000000004     48.766649999999998
C      46.877499999999998     48.945650000000001     49.260249999999999
C      47.443899999999999     46.273650000000004     48.828849999999989
C      46.008899999999997     47.942650000000000     49.699849999999998
C      46.221699999999998     46.528150000000004     49.610349999999997
H      49.678299999999993     49.799549999999996     45.993949999999998
H      50.871300000000005     50.113650000000007     46.777550000000005
H      50.972200000000001     47.109150000000000     46.302750000000003
H      49.209900000000005     47.652750000000005     45.924750000000003
H      48.001899999999992     50.329350000000005     47.445449999999994
H      49.421499999999995     50.635249999999999     48.737049999999996
H      50.342900000000000     46.447650000000003     48.529949999999999
H      49.375299999999996     45.851849999999999     47.377549999999999
H      46.583399999999997     50.137650000000001     49.542349999999999
H      47.351100000000002     45.364750000000001     48.245049999999992
H      45.027799999999999     48.441549999999999     50.075249999999997
H      45.381699999999995     45.755150000000000     49.568649999999991
