5

C      48.073249999999987     48.251949999999994     47.931199999999990
H      48.526849999999996     48.181149999999995     48.903999999999996
H      47.962750000000000     47.170449999999995     47.717100000000002
H      47.241849999999999     48.785350000000001     47.818200000000004
H      48.758150000000001     48.829550000000005     47.096000000000004
