22

C      48.903649999999992     48.820699999999995     50.089849999999991
C      48.742249999999999     49.855400000000003     48.858049999999999
C      47.909250000000000     47.523699999999991     49.976849999999999
C      47.329549999999998     49.859200000000001     48.162349999999996
C      47.379149999999996     47.300799999999995     48.483950000000000
C      46.853349999999992     48.512900000000002     47.735849999999999
C      46.143950000000004     48.261899999999997     46.492750000000001
C      47.436250000000001     46.011099999999999     47.942850000000000
C      46.372550000000004     47.044899999999998     45.871049999999997
C      47.071349999999995     45.960700000000003     46.520550000000000
H      48.497150000000005     49.117800000000003     51.201450000000001
H      50.126149999999996     48.486400000000003     50.035950000000000
H      48.981449999999995     50.983800000000002     49.072449999999996
H      49.381249999999994     49.411000000000001     48.088050000000003
H      46.999949999999998     47.798800000000000     50.691049999999990
H      48.230450000000005     46.440100000000001     50.293250000000000
H      47.287850000000006     50.543300000000002     47.336050000000000
H      46.696749999999994     50.011499999999998     49.168149999999997
H      45.873850000000004     49.292199999999994     46.213850000000001
H      47.794849999999997     45.114599999999996     48.406750000000002
H      46.061849999999993     47.233699999999999     44.798549999999999
H      46.839649999999992     45.016199999999998     45.826949999999997
