8

C      47.648299999999999     48.113849999999999     48.661849999999987
C      48.122900000000001     47.968450000000004     47.115849999999995
H      48.268000000000001     47.531750000000002     49.599150000000009
H      46.820999999999998     48.721650000000004     48.926449999999988
H      49.179000000000002     47.659450000000007     47.015749999999997
H      47.722099999999998     47.128350000000005     46.518850000000000
H      47.867900000000006     48.821850000000005     46.400849999999991
H      48.310100000000006     48.871649999999995     48.995049999999992
