22

C      49.443950000000001     49.286349999999999     49.574100000000001
C      48.705050000000000     48.415249999999993     50.559299999999993
C      49.874150000000000     48.762350000000005     48.287000000000006
C      47.709150000000008     47.392949999999992     50.134500000000003
C      48.753950000000003     47.940049999999992     47.712500000000006
C      47.940350000000009     47.115550000000006     48.590000000000003
C      48.421550000000011     48.082550000000005     46.241700000000009
C      46.837450000000004     46.387750000000004     47.879200000000012
C      47.372250000000008     47.316150000000000     45.790700000000001
C      46.385150000000010     46.542849999999994     46.537100000000009
H      48.765750000000011     50.196750000000002     49.479700000000008
H      50.326549999999997     49.670150000000000     50.292700000000011
H      49.473050000000001     48.321450000000006     51.273299999999992
H      48.369050000000001     49.370150000000002     50.876900000000006
H      50.432850000000002     49.320950000000003     47.426000000000002
H      50.615349999999992     47.831550000000000     48.862300000000005
H      47.749650000000003     46.455249999999999     50.739099999999993
H      46.641750000000002     47.500849999999993     50.215900000000005
H      49.056850000000011     48.621749999999999     45.553400000000011
H      46.367950000000008     45.803249999999998     48.648300000000006
H      46.999150000000000     47.367950000000000     44.726700000000008
H      45.384650000000008     46.211850000000005     46.033700000000010
