6

C      48.187699999999992     48.447349999999993     47.449649999999991
C      47.941499999999998     47.487849999999995     48.422750000000001
H      47.669400000000003     49.348250000000000     47.409450000000000
H      48.987299999999998     48.364950000000000     46.789650000000002
H      47.012700000000002     47.531450000000000     49.210349999999998
H      48.573799999999999     46.651750000000000     48.120550000000001
