20

C      48.560849999999988     47.220449999999985     50.237299999999998
C      47.634249999999994     45.969049999999996     49.808199999999999
C      47.348550000000003     48.441550000000007     50.031199999999998
C      47.432149999999993     45.991849999999999     48.534199999999998
C      47.133749999999992     48.460049999999995     48.432199999999995
C      47.685950000000005     47.316450000000003     47.743799999999993
C      47.068150000000003     49.637050000000002     47.474899999999991
C      47.885850000000005     47.635050000000007     46.322199999999995
C      47.439549999999997     49.900949999999995     46.168499999999995
C      48.243349999999992     48.754549999999995     45.587499999999991
H      49.001649999999998     47.396550000000005     51.355599999999995
H      49.584050000000005     47.633750000000006     50.013599999999997
H      47.309749999999994     45.068249999999992     50.295100000000005
H      47.084649999999996     49.356449999999995     50.742000000000004
H      46.513850000000005     48.182150000000007     50.407499999999999
H      47.035349999999994     45.113349999999997     47.878900000000002
H      46.415949999999995     50.306350000000009     47.995400000000004
H      48.041049999999998     46.585849999999994     45.974099999999993
H      47.497349999999997     50.931750000000008     45.649299999999997
H      48.625450000000001     48.556349999999995     44.644400000000005
