5

C      47.995499999999993     48.383399999999995     47.461549999999988
C      47.882000000000005     47.454799999999999     48.475450000000002
H      48.708500000000001     47.678199999999997     49.135650000000005
H      47.291499999999999     46.613199999999999     48.452549999999995
O      48.294899999999998     49.386800000000001     46.864349999999995
