22

C      49.225749999999991     50.230399999999989     48.442499999999988
C      50.262349999999991     49.415800000000004     47.645599999999995
C      47.925350000000002     49.486000000000004     48.642099999999999
C      50.039450000000002     47.777400000000000     48.003699999999995
C      47.417949999999998     48.141400000000004     48.034099999999995
C      48.568350000000002     47.302199999999999     47.614699999999999
C      46.009549999999997     47.833900000000000     48.334599999999995
C      48.036650000000002     45.975000000000009     46.952700000000000
C      45.715750000000000     46.616799999999998     47.630400000000002
C      46.536249999999995     45.591099999999997     46.998399999999997
H      49.569949999999999     50.193300000000008     49.396999999999991
H      49.156849999999999     51.329200000000000     48.093699999999998
H      51.219749999999998     49.736500000000007     47.863399999999999
H      50.154350000000001     49.680900000000008     46.567200000000000
H      47.104849999999999     50.283200000000008     48.409599999999998
H      47.663649999999997     49.451700000000002     49.792999999999999
H      50.769950000000001     47.363900000000001     47.485999999999997
H      50.177150000000005     47.747600000000006     49.127800000000001
H      45.337049999999998     48.685300000000012     48.642199999999995
H      48.580249999999999     45.558700000000002     46.207000000000001
H      44.780250000000002     46.334000000000003     47.924599999999998
H      46.087449999999997     44.670800000000000     47.109200000000001
