21

C      47.044949999999993     47.008399999999995     50.251049999999992
C      48.642949999999999     49.878700000000002     46.740949999999998
C      47.977150000000009     47.512099999999997     45.484050000000003
C      48.241349999999997     47.529700000000012     46.981050000000003
C      48.494850000000000     48.773500000000006     47.683650000000000
C      48.639850000000010     48.607499999999995     48.987549999999999
C      47.962550000000000     46.368900000000004     47.946350000000002
C      48.866650000000000     45.910499999999999     49.139550000000000
C      48.077649999999991     47.199800000000003     49.168450000000000
H      47.680250000000001     50.206399999999995     46.369549999999997
H      46.164850000000001     47.896500000000003     49.949050000000000
H      46.776049999999998     45.855200000000004     50.402049999999996
H      47.311149999999998     47.379600000000003     51.244149999999998
H      49.234650000000002     49.602200000000003     45.890149999999998
H      49.157749999999993     50.617500000000000     47.502049999999997
H      47.721049999999998     48.265400000000007     44.755850000000002
H      48.155050000000003     46.610900000000001     45.140650000000001
H      48.613149999999990     49.448200000000007     49.751249999999999
H      46.875250000000001     46.007300000000001     47.817450000000001
H      48.628549999999990     45.382500000000000     50.096650000000004
H      49.835149999999999     45.528300000000002     48.718249999999998
