22

C      49.161049999999989     48.051299999999991     45.486149999999988
C      47.549850000000006     47.660200000000003     45.418479999999995
C      49.835449999999994     47.887199999999993     46.885610000000000
C      46.836849999999998     48.176899999999989     46.664509999999993
C      48.882549999999995     47.783900000000003     47.941209999999998
C      47.385450000000006     47.567200000000000     47.867810000000006
C      49.358750000000001     47.607100000000003     49.314609999999995
C      46.544749999999993     47.106200000000001     49.015109999999993
C      48.560749999999999     47.155000000000001     50.427210000000002
C      47.105949999999993     47.005899999999997     50.282809999999998
H      49.270949999999999     49.083299999999994     45.154899999999998
H      49.767349999999993     47.351999999999990     44.835829999999994
H      47.398949999999999     46.725399999999993     45.179929999999999
H      47.316749999999999     48.278499999999994     44.382189999999994
H      50.608350000000002     48.563199999999995     47.259209999999996
H      50.227149999999995     46.818899999999999     46.876909999999995
H      45.767449999999997     47.837699999999998     46.491419999999998
H      46.970550000000003     49.384399999999999     46.841209999999997
H      50.508250000000004     47.716299999999990     49.418709999999997
H      45.391649999999998     46.838600000000000     48.845509999999990
H      48.961550000000003     47.001899999999992     51.617810000000006
H      46.569149999999993     46.615600000000001     51.153610000000000
