23

C      45.491199999999992     47.172549999999994     47.987474999999989
C      50.126199999999983     48.085549999999998     48.819045000000003
C      47.001300000000001     46.580950000000001     47.425944999999999
C      49.395200000000003     50.232650000000007     46.908985000000001
C      48.629700000000000     47.934950000000001     49.129805000000005
C      49.525499999999994     48.787250000000000     47.718085000000002
C      48.121799999999993     46.659149999999997     48.462665000000001
C      50.493599999999986     47.605249999999998     47.253245000000007
C      48.411600000000007     45.854050000000001     47.296385000000001
C      49.901399999999981     46.055250000000001     47.222705000000005
H      48.619799999999984     51.098050000000001     47.111595000000008
H      50.366900000000001     45.370750000000001     48.012545000000003
H      44.618399999999994     46.869850000000000     47.552244999999999
H      45.376199999999997     47.081449999999997     49.027285000000006
H      48.533699999999982     49.980649999999997     46.041044999999997
H      50.717900000000000     47.513350000000003     49.606985000000009
H      46.867099999999994     47.537950000000002     46.650365000000008
H      48.137600000000006     48.554949999999998     49.958955000000003
H      50.254699999999985     50.155349999999999     46.353745000000004
H      47.779700000000005     46.138550000000002     49.327714999999998
H      51.381600000000006     47.918350000000004     46.924585000000008
H      48.222800000000007     44.901949999999999     46.983405000000005
H      50.542299999999983     45.198749999999997     46.585504999999998
