50

C      46.635599999999997     48.630400000000002     47.132799999999989
C      45.658999999999999     47.975200000000001     46.260700000000000
C      50.365900000000003     44.477900000000005     47.466299999999997
C      47.892199999999995     47.819699999999997     47.673699999999990
C      46.209700000000005     46.626199999999997     45.754899999999999
C      49.740299999999998     45.799199999999999     47.843100000000000
C      46.117800000000003     45.368099999999998     46.871199999999995
C      48.529999999999994     46.475300000000004     47.286299999999997
C      47.444000000000003     46.099500000000006     46.335499999999996
C      46.326900000000002     50.073999999999998     47.422499999999999
C      45.366800000000005     50.912599999999998     46.687300000000000
C      44.364600000000003     50.211600000000004     45.865699999999997
C      44.585700000000003     48.830799999999996     45.658499999999997
C      46.763500000000001     50.418400000000005     48.674099999999989
C      46.411700000000003     50.088499999999996     49.990299999999998
C      45.128999999999998     52.348299999999995     47.057299999999998
C      47.928400000000003     49.838499999999996     49.458899999999993
C      48.635299999999994     48.539900000000003     48.679299999999991
C      50.024999999999999     48.212199999999996     48.719299999999997
C      50.708900000000007     46.805900000000008     48.624800000000000
C      50.627400000000002     47.567000000000007     50.120100000000001
C      50.963500000000003     49.265000000000001     48.354599999999998
C      49.328799999999994     43.686800000000005     46.920600000000000
C      51.826200000000007     50.599199999999996     49.106099999999998
C      46.106200000000001     51.455500000000001     50.793900000000001
C      47.242700000000006     46.106800000000007     44.771899999999995
H      51.234800000000000     43.770099999999999     47.658299999999990
H      46.115099999999998     44.396299999999997     46.309100000000001
H      43.467900000000000     50.778999999999996     45.287299999999995
H      44.314599999999999     47.984899999999996     44.942000000000000
H      48.445600000000006     50.620599999999996     50.196700000000000
H      51.787700000000008     46.327399999999997     48.634699999999995
H      50.663699999999999     49.413499999999999     47.374299999999998
H      51.861200000000004     48.792600000000007     47.967599999999997
H      48.284100000000002     44.116799999999998     46.647900000000000
H      49.499299999999998     42.665199999999999     46.540999999999997
H      52.198700000000009     50.355500000000006     50.106299999999997
H      52.532100000000000     50.876400000000004     48.279899999999991
H      51.114100000000001     51.457300000000004     49.494300000000003
H      45.521900000000002     51.332000000000008     51.659500000000001
H      47.160999999999994     51.493800000000007     51.209099999999999
H      45.732500000000002     52.227699999999999     50.263700000000007
H      45.487099999999998     45.423600000000008     47.956299999999992
H      47.077599999999997     45.039500000000004     44.354099999999995
H      48.034299999999995     46.648700000000005     44.340499999999999
H      45.629600000000003     48.232200000000006     49.467199999999998
H      45.827700000000000     48.068399999999997     51.355899999999998
N      45.649700000000003     48.735500000000002     50.532699999999998
O      51.612900000000003     47.804699999999997     50.715499999999999
O      44.780900000000003     53.334800000000001     47.435499999999998
