46

C      52.916600000000003     47.705300000000001     44.870249999999999
C      53.116600000000005     46.145600000000002     44.851749999999996
C      51.493300000000005     48.540000000000006     45.023949999999999
C      51.871300000000005     45.408200000000008     45.763249999999999
C      51.082200000000000     47.944299999999998     46.473550000000003
C      51.184799999999996     46.241000000000000     46.896150000000006
C      51.929199999999994     48.673400000000001     47.504549999999995
C      49.933800000000005     46.717200000000005     46.647350000000003
C      52.358900000000006     47.574200000000005     48.403050000000007
C      51.749700000000004     46.448599999999999     48.193049999999999
C      48.948599999999999     46.884100000000004     47.770249999999990
C      48.285899999999998     48.051000000000002     48.861949999999993
C      45.403199999999998     50.032499999999999     50.077449999999999
C      47.441999999999993     47.960099999999997     50.175849999999997
C      45.023600000000002     48.501800000000003     49.925449999999998
C      46.119699999999995     47.537599999999998     50.029150000000001
C      43.647499999999994     48.011400000000009     49.887949999999989
C      45.889600000000002     46.143799999999999     49.477249999999998
C      43.243700000000004     46.614199999999997     49.574950000000001
C      44.445400000000006     45.777900000000002     49.492850000000004
H      45.171199999999999     51.497000000000000     52.161249999999995
H      53.289500000000004     48.216999999999999     43.985450000000000
H      53.375100000000003     48.261499999999998     45.772950000000009
H      53.772999999999996     46.020800000000008     45.609850000000009
H      53.541100000000000     45.859899999999996     43.838750000000005
H      51.287999999999997     49.628799999999998     44.927549999999997
H      50.573700000000002     48.133499999999998     44.237850000000009
H      52.372699999999995     44.503000000000000     46.077649999999991
H      51.184899999999999     45.122399999999999     45.026550000000000
H      52.359099999999998     49.617599999999996     47.350249999999988
H      49.509399999999999     46.454300000000003     45.618650000000002
H      52.892700000000005     47.755700000000004     49.398449999999997
H      52.051599999999993     45.667400000000001     49.081050000000005
H      49.045800000000000     45.898600000000002     48.300950000000000
H      47.958200000000005     46.845100000000002     47.297550000000001
H      47.358000000000004     48.747200000000007     48.645650000000003
H      49.032899999999998     48.698800000000006     49.138649999999998
H      44.641099999999994     50.744500000000002     49.547950000000000
H      46.486000000000004     50.115600000000001     49.713049999999996
H      47.584299999999999     48.879199999999997     50.758449999999996
H      47.978399999999993     47.238600000000005     50.947549999999993
H      42.760199999999998     48.709000000000003     49.793949999999995
H      46.638999999999996     45.465699999999998     49.765749999999997
H      42.227000000000004     46.474800000000002     49.252949999999998
H      44.585700000000003     44.602300000000000     49.225149999999999
S      45.775999999999996     50.278999999999996     52.075950000000006
