22

C      47.419929999999994     48.236834999999999     45.558650000000000
C      47.806640000000002     49.887135000000001     45.984650000000002
C      48.580559999999998     47.298805000000002     46.081249999999997
C      48.545700000000004     49.920974999999999     47.271849999999986
C      48.803950000000000     47.339455000000001     47.446150000000003
C      48.337640000000000     48.724725000000007     48.050950000000000
C      48.857830000000000     46.278455000000008     48.458849999999998
C      47.619080000000004     48.623705000000001     49.315249999999992
C      48.644629999999999     46.340635000000006     49.851849999999999
C      48.241999999999997     47.735655000000008     50.302149999999997
H      46.408679999999997     48.201864999999998     46.318150000000003
H      46.978749999999998     48.394305000000003     44.678449999999998
H      46.725929999999998     49.986824999999996     46.247749999999996
H      47.927690000000005     50.506315000000001     45.168750000000003
H      49.536229999999996     47.358615000000000     45.434550000000002
H      48.280409999999996     46.152445000000000     45.934550000000002
H      49.591320000000003     50.411614999999998     46.957049999999995
H      48.288220000000003     50.710615000000004     48.062049999999999
H      49.069800000000001     45.289384999999996     47.894849999999991
H      47.134360000000001     49.402605000000008     49.922150000000002
H      48.812429999999999     45.602325000000008     50.560050000000004
H      47.925820000000002     47.640815000000003     51.321550000000002
