22

C      50.295599999999993     48.078599999999994     48.612999999999985
C      49.814700000000002     46.700200000000002     48.693299999999994
C      49.416400000000010     49.160500000000006     49.194900000000004
C      49.052500000000009     46.594000000000001     47.118700000000004
C      48.120300000000000     48.755599999999994     48.227199999999996
C      47.893200000000007     47.601000000000006     47.437200000000004
C      46.891700000000000     49.481199999999994     48.151700000000005
C      46.630800000000008     47.260799999999996     46.889799999999994
C      45.568100000000001     49.423399999999994     47.632199999999997
C      45.752499999999998     48.456099999999999     46.577399999999997
H      51.251300000000001     48.260299999999994     48.978499999999997
H      50.621700000000004     48.380599999999994     47.645499999999998
H      48.809300000000007     46.806699999999999     49.479299999999995
H      50.563600000000008     45.958499999999994     48.847099999999998
H      48.832300000000004     48.965700000000005     50.046800000000005
H      49.305000000000007     50.441399999999994     49.296999999999997
H      49.485100000000003     46.824400000000004     46.257300000000001
H      48.638199999999998     45.558600000000006     46.907299999999992
H      46.699600000000004     50.282599999999995     48.813500000000005
H      46.842399999999998     46.592900000000007     46.214600000000004
H      44.775100000000009     50.166000000000004     47.623000000000005
H      44.748699999999999     48.175800000000002     45.953199999999995
