5

C      48.188049999999990     47.838729999999998     48.114624999999997
H      48.917650000000002     47.517520000000005     48.889724999999999
H      47.926949999999998     48.891439999999996     48.001525000000001
H      48.830449999999992     47.610450000000000     47.110275000000001
H      47.082349999999998     47.108560000000004     48.091925000000003
