23

C      48.868349999999992     48.175049999999999     45.176999999999992
C      48.673650000000002     46.669950000000007     45.855299999999986
C      49.330049999999993     48.906550000000003     46.540199999999999
C      47.413949999999993     46.224850000000004     46.741299999999981
C      48.182650000000002     48.669649999999997     47.549099999999981
C      47.264850000000003     47.714450000000006     47.495399999999989
C      48.156749999999995     49.519150000000003     48.748899999999992
C      46.455850000000005     47.847250000000003     48.823699999999988
C      46.507050000000000     49.409050000000001     50.767399999999981
C      46.971150000000002     49.080450000000006     49.446500000000000
H      47.265949999999997     49.187650000000005     51.694299999999998
H      49.646949999999997     48.249749999999999     44.305700000000002
H      48.041649999999997     48.525950000000002     44.601399999999998
H      49.723649999999999     46.449850000000005     46.470099999999988
H      48.839250000000000     45.846750000000007     45.121399999999994
H      50.428350000000002     49.213350000000005     47.063899999999990
H      49.421550000000003     49.937050000000006     46.450399999999988
H      47.299249999999994     45.532350000000001     47.582799999999992
H      46.606550000000006     45.739650000000005     46.219799999999992
H      49.104049999999994     49.976150000000004     48.988399999999999
H      45.982149999999997     47.087850000000003     49.455199999999991
H      45.571649999999998     48.809750000000001     51.117399999999989
H      46.472649999999994     50.467649999999999     50.746299999999991
