22

C      48.987499999999990     50.068599999999989     47.590579999999989
C      49.469799999999992     49.673100000000005     48.907850000000003
C      47.458399999999997     50.215400000000002     47.549579999999999
C      48.668399999999998     48.443500000000000     49.638420000000004
C      46.938899999999997     48.536500000000004     47.521179999999994
C      47.442099999999996     47.976299999999995     48.711230000000000
C      46.172599999999996     48.618499999999997     48.762880000000003
C      47.367799999999995     46.508600000000001     48.551568000000010
C      46.824299999999994     47.331400000000002     46.581479999999992
C      46.805899999999994     46.090329999999994     47.273279999999993
H      49.646100000000004     50.848500000000001     47.183180000000000
H      49.301499999999997     49.453699999999998     46.736079999999994
H      49.222999999999992     50.760400000000004     49.298909999999999
H      50.626000000000005     49.566299999999998     48.971070000000005
H      46.896699999999996     50.662099999999995     46.579979999999999
H      46.943899999999999     50.777600000000007     48.467401000000002
H      47.943999999999996     49.020099999999999     50.211080000000003
H      49.174999999999997     47.671700000000001     50.481619999999999
H      45.373999999999995     48.450900000000004     49.483690000000003
H      48.139399999999995     45.843339999999998     49.141889999999997
H      46.839599999999990     47.489000000000004     45.518380000000001
H      46.973799999999997     45.151499999999999     46.769979999999997
