61

C      47.850699999999996     46.159409999999994     51.790449999999993
C      48.728500000000004     45.854320000000001     50.572250000000004
C      44.408400000000000     52.282760000000003     51.951950000000004
C      46.239400000000003     52.624559999999995     49.944749999999999
C      48.093500000000006     47.450470000000003     52.513250000000006
C      49.053899999999999     47.011290000000002     49.688250000000004
C      45.522500000000008     51.856259999999999     51.072949999999999
C      47.249700000000004     51.931960000000011     49.198650000000001
C      46.867200000000004     49.657260000000001     51.765950000000004
C      47.740200000000002     49.360760000000006     49.183349999999997
C      47.768799999999999     48.482600000000005     51.483049999999999
C      48.267600000000002     48.314129999999999     50.093350000000001
C      46.407100000000000     50.637859999999996     50.924950000000003
C      47.111000000000004     50.632560000000005     49.627050000000004
C      47.238200000000006     44.999990000000004     52.490949999999998
C      47.819200000000002     43.655329999999999     52.182650000000002
C      48.789500000000004     43.305180000000000     51.066450000000003
C      49.015300000000011     44.370390000000000     50.214750000000002
C      45.939300000000003     45.273880000000005     53.282350000000001
C      50.044200000000004     46.602430000000005     48.652850000000001
C      49.876400000000004     45.244890000000005     48.101350000000004
C      49.804700000000004     44.116820000000004     48.965150000000001
C      44.127500000000005     51.563260000000007     53.177450000000000
C      51.273700000000005     44.886160000000004     47.116350000000004
C      48.580800000000004     44.694360000000003     46.790050000000001
C      45.715299999999999     46.647080000000003     53.181350000000002
C      51.420300000000005     46.945000000000000     49.291650000000004
C      49.240800000000007     43.471150000000002     44.387850000000000
C      49.643799999999999     43.839640000000003     43.069550000000000
C      50.278600000000004     45.144910000000003     42.827950000000001
C      50.338499999999996     46.091790000000003     43.823750000000004
C      49.627300000000005     45.836649999999999     45.021749999999997
C      49.134700000000009     44.492840000000001     45.380549999999999
H      52.026900000000012     45.606040000000000     46.723450000000000
H      43.840299999999999     53.189060000000005     51.765650000000001
H      45.837900000000005     53.700460000000000     49.747050000000002
H      47.788300000000007     52.351260000000003     48.335450000000002
H      46.342700000000008     49.900060000000003     52.677650000000007
H      48.262500000000003     49.120460000000001     48.240850000000002
H      47.333200000000005     42.937140000000007     52.693449999999991
H      49.128799999999998     42.299540000000000     50.667349999999999
H      45.433300000000003     44.609950000000005     53.969650000000009
H      50.293900000000008     47.314799999999998     47.891150000000003
H      49.626800000000003     43.190620000000003     48.289549999999998
H      50.892200000000003     43.904550000000000     49.282550000000001
H      47.889399999999995     45.457960000000000     46.698450000000001
H      47.942099999999996     43.800550000000001     47.132249999999999
H      46.270700000000005     47.269320000000000     52.539749999999998
H      44.954300000000003     46.956520000000005     53.471550000000001
H      52.159700000000001     46.266220000000004     48.923749999999998
H      51.295700000000004     47.949450000000006     49.200949999999999
H      51.564500000000010     46.888680000000001     50.528350000000003
H      48.971600000000009     42.348960000000005     44.537150000000004
H      49.407499999999999     43.226850000000006     42.266849999999998
H      50.607700000000008     45.188400000000001     41.748550000000002
H      50.795100000000005     46.987140000000004     43.436950000000003
H      49.879700000000000     46.628350000000005     45.710450000000002
H      48.924199999999999     48.709760000000010     53.998849999999997
N      48.662700000000001     47.609069999999996     53.630150000000000
O      44.157300000000006     51.079060000000005     54.251449999999998
O      51.293200000000006     43.748880000000000     46.768950000000004
