60

C      47.623149999999988     46.116499999999988     46.541999999999987
C      46.982849999999999     45.616199999999999     47.789300000000004
C      48.488250000000001     49.473000000000006     50.593499999999999
C      49.472149999999999     49.869199999999999     49.652999999999999
C      48.518250000000009     47.335500000000003     46.682899999999997
C      46.763249999999999     46.510899999999999     48.846600000000002
C      49.435150000000007     49.249299999999998     48.312099999999994
C      47.378949999999996     48.674200000000006     50.109500000000004
C      48.756950000000003     48.002800000000001     48.062099999999994
C      47.648350000000001     47.752599999999994     49.031600000000005
C      47.053749999999994     45.436900000000001     45.307899999999997
C      46.862349999999999     44.091900000000003     45.153999999999996
C      46.575649999999996     44.150299999999994     47.714099999999995
C      48.520449999999997     50.381700000000002     51.809699999999999
C      49.549050000000001     51.473499999999994     51.736499999999999
C      50.096049999999998     51.044999999999995     50.353599999999993
C      51.021349999999998     52.053000000000004     49.756300000000003
C      48.533149999999999     48.399800000000006     45.627699999999997
C      47.857450000000000     47.980799999999995     44.401899999999998
C      47.000650000000000     46.617799999999995     44.253200000000000
C      45.555049999999994     45.999800000000000     49.705899999999993
C      46.015850000000000     44.494000000000007     50.089399999999991
C      46.382649999999998     43.550000000000004     48.976899999999993
C      47.091749999999998     44.768300000000004     51.144600000000004
C      44.737250000000003     43.986300000000007     50.763199999999991
C      44.277549999999998     45.036499999999997     52.032899999999991
C      50.453049999999998     50.145100000000006     47.516299999999994
C      47.084649999999996     43.519900000000000     43.764099999999999
C      47.253250000000001     50.832299999999996     52.434000000000005
C      51.790450000000007     53.110800000000005     50.296500000000002
H      46.425550000000001     48.522500000000001     50.783300000000004
H      49.146349999999998     52.591400000000000     51.459899999999998
H      51.500649999999993     51.303300000000000     48.975099999999991
H      50.021650000000001     51.220099999999995     47.300599999999996
H      49.068750000000001     49.378499999999995     45.313099999999999
H      47.809749999999994     48.962499999999999     43.801600000000001
H      47.427749999999996     45.825600000000001     43.451200000000000
H      46.055349999999997     46.813399999999994     43.835000000000001
H      45.231349999999999     46.687500000000007     50.480100000000000
H      44.601749999999996     45.881400000000006     49.415100000000002
H      46.128650000000000     42.565099999999994     48.966400000000000
H      48.023949999999999     44.458900000000007     50.499400000000001
H      47.108750000000001     44.195100000000004     52.239200000000004
H      47.352449999999997     45.926899999999996     51.397500000000001
H      44.041950000000000     43.887999999999998     50.089800000000004
H      45.028549999999996     43.011599999999994     51.222100000000005
H      43.202550000000002     45.042700000000004     52.424599999999991
H      44.124449999999996     46.079600000000006     51.430900000000001
H      45.193849999999998     45.534600000000005     52.502900000000004
H      50.663750000000000     49.916900000000005     46.367699999999999
H      51.455749999999995     50.479800000000004     47.753200000000000
H      46.732849999999999     43.955700000000000     42.799900000000001
H      47.452349999999996     42.474300000000007     43.713499999999996
H      47.163049999999998     51.730899999999998     53.200099999999999
H      51.602950000000007     53.602200000000003     51.208400000000005
H      52.797449999999998     53.441099999999999     49.816600000000001
H      46.122349999999997     50.474600000000002     52.365000000000002
H      45.133449999999996     43.214999999999996     46.325599999999994
H      46.200149999999994     42.397799999999997     45.962499999999999
N      46.247450000000001     43.345999999999997     46.409299999999995
