22

C      46.657549999999993     45.143614999999983     50.046949999999995
C      47.616050000000001     45.424214999999997     49.178950000000000
C      49.195050000000009     45.537514999999992     49.556249999999999
C      47.247249999999994     46.245214999999995     47.775549999999996
C      49.368250000000003     47.522714999999998     46.279649999999997
C      48.289850000000001     47.328714999999995     47.422950000000000
C      48.416950000000000     48.689114999999994     47.027049999999996
C      46.997550000000004     49.000114999999987     47.117350000000002
C      49.158850000000001     49.377513000000000     48.131850000000000
C      47.096850000000003     50.191515000000003     47.993350000000000
C      48.345249999999993     50.580865000000003     48.541550000000001
H      47.007249999999999     44.676814999999998     50.967149999999997
H      46.297449999999998     46.730815000000000     47.829650000000001
H      47.252250000000004     45.444114999999989     47.012949999999996
H      50.438350000000000     48.004815000000001     46.571350000000002
H      49.104349999999997     47.470214999999989     45.032850000000003
H      46.176150000000000     48.630614999999999     46.418250000000000
H      50.074349999999995     49.344771000000001     48.779750000000000
H      46.273550000000000     50.756934999999999     48.290050000000001
H      48.368549999999999     51.323185000000002     49.297950000000000
H      45.561650000000000     45.094014999999992     49.819850000000002
O      50.242450000000005     45.696514999999998     49.913750000000000
