93

C      50.335949999999997     43.963699999999989     49.318799999999996
C      49.662949999999995     41.166700000000006     51.554400000000008
C      46.976550000000003     43.475399999999993     46.857100000000003
C      48.290849999999992     44.786299999999997     47.323500000000003
C      49.536249999999995     42.715400000000002     49.549199999999999
C      50.313649999999996     40.580600000000004     50.409800000000004
C      48.236850000000004     43.351799999999997     47.388800000000003
C      47.474350000000001     42.211600000000004     46.139700000000005
C      48.631149999999991     42.402100000000004     48.536700000000003
C      49.805750000000003     41.283299999999997     49.042800000000000
C      51.023749999999993     44.564899999999994     48.115900000000003
C      51.415949999999995     41.239000000000004     53.725800000000000
C      51.800149999999988     40.347399999999993     52.779100000000000
C      50.497149999999991     41.195700000000002     52.656600000000005
C      49.065349999999995     42.707899999999995     51.070200000000007
C      52.474750000000000     44.735500000000002     47.729399999999998
C      50.228650000000002     45.441299999999998     48.975200000000001
C      48.934950000000001     39.918199999999999     51.087499999999999
C      51.840649999999997     39.897999999999996     49.982199999999999
C      52.435249999999996     38.961699999999993     51.091799999999999
C      48.871250000000003     45.990399999999994     48.246900000000004
C      50.968549999999993     46.206900000000005     50.048499999999997
C      45.859449999999995     53.169899999999998     49.254200000000004
C      44.557549999999992     53.217500000000001     48.510700000000000
C      48.213849999999994     49.853000000000009     46.145200000000003
C      46.845349999999996     49.995500000000007     45.576100000000004
C      47.130049999999997     52.451899999999995     48.990500000000004
C      44.855149999999995     52.746799999999993     47.142299999999999
C      48.086550000000003     50.830300000000008     47.294899999999998
C      45.633349999999993     50.618099999999998     45.739400000000003
C      47.074550000000002     51.653700000000001     47.663100000000000
C      45.723550000000003     51.665700000000001     46.837699999999998
C      46.298850000000002     54.202500000000001     50.007500000000000
C      45.280050000000003     55.453900000000004     50.217800000000004
C      43.811650000000000     55.210300000000004     50.005400000000002
C      43.610450000000000     54.203500000000005     49.062899999999999
C      49.066450000000003     49.087900000000005     43.833400000000005
C      47.852549999999994     49.181799999999996     43.095500000000001
C      47.580749999999995     48.120699999999999     43.902600000000000
C      46.515349999999998     49.152500000000003     44.213100000000004
C      47.754750000000001     54.423700000000011     50.112800000000000
C      48.260750000000002     55.807199999999995     50.453700000000005
C      47.436149999999998     56.858199999999997     50.696100000000001
C      45.914249999999996     56.653000000000006     50.608200000000004
C      49.281350000000003     48.999399999999994     45.459299999999999
C      48.344949999999997     53.128699999999995     49.668800000000005
C      44.076949999999997     53.247500000000002     45.856700000000004
C      49.406350000000003     47.443299999999994     46.057600000000001
C      48.571950000000001     47.253100000000003     47.329300000000003
C      47.836150000000004     49.413200000000003     41.604800000000004
C      49.313350000000000     50.718699999999998     48.310800000000000
H      50.557350000000000     41.212599999999995     48.269200000000005
H      46.006450000000001     43.230999999999995     47.579300000000003
H      48.235450000000000     45.159100000000009     46.308199999999999
H      51.452950000000001     40.936000000000007     54.841600000000000
H      49.256749999999997     43.498400000000004     51.756000000000007
H      47.940649999999991     42.685900000000004     50.904699999999998
H      53.294049999999999     45.537499999999994     47.785800000000002
H      49.204650000000001     38.938100000000006     51.450099999999999
H      48.477850000000004     39.945899999999995     50.023299999999999
H      51.786149999999992     39.321200000000005     49.082400000000000
H      51.841349999999991     38.138099999999994     51.237500000000004
H      53.409549999999996     38.743600000000001     50.682600000000001
H      52.556950000000001     40.736599999999996     49.881900000000002
H      53.113150000000005     44.030600000000007     47.251700000000000
H      48.192549999999997     45.756699999999995     49.106800000000000
H      50.545449999999988     45.741799999999998     51.038100000000007
H      50.640549999999990     47.308999999999997     49.820000000000000
H      52.073049999999995     45.735799999999998     50.279699999999998
H      44.726649999999992     50.591200000000001     44.990300000000005
H      43.134349999999998     55.926100000000005     50.300099999999993
H      42.590450000000004     54.188400000000001     49.015200000000000
H      50.141049999999993     48.616200000000006     43.226600000000005
H      47.452550000000002     47.455200000000005     43.154299999999999
H      45.428349999999995     49.223299999999995     43.849499999999999
H      49.337350000000001     56.116399999999999     50.467600000000004
H      47.912449999999993     57.861900000000006     50.860500000000002
H      45.408950000000004     57.687700000000007     50.493600000000008
H      50.392749999999992     49.549900000000008     45.733499999999999
H      49.370949999999993     52.959900000000005     49.396900000000009
H      49.166550000000001     46.589399999999998     45.293700000000001
H      50.247249999999994     47.186300000000003     46.459400000000002
H      48.882949999999994     48.198800000000006     47.825299999999999
H      47.535749999999993     46.973100000000002     47.249099999999999
H      47.978650000000002     48.369799999999998     41.158400000000000
H      48.667649999999995     50.210300000000004     41.286200000000001
H      46.955849999999998     49.974900000000005     41.200900000000004
H      49.048549999999992     50.044300000000007     49.009799999999998
H      49.088250000000002     51.675300000000007     48.858000000000004
H      50.387050000000002     50.572999999999993     48.166499999999999
O      47.995649999999998     41.751999999999995     45.217100000000002
O      52.873249999999999     39.808999999999997     52.389000000000003
O      43.758949999999999     53.370600000000010     44.837400000000002
