22

C      46.037349999999989     48.550049999999992     48.732899999999987
C      46.023449999999997     49.401750000000007     47.530199999999994
C      47.265949999999997     48.725450000000009     49.537499999999994
C      47.419350000000001     49.230050000000006     46.578900000000004
C      48.519449999999999     48.226750000000010     48.722700000000003
C      48.461950000000009     48.322450000000003     47.268900000000002
C      49.079149999999998     46.948149999999998     49.117000000000004
C      49.548749999999991     48.039550000000006     46.423100000000005
C      49.809649999999998     46.185250000000011     48.109200000000001
C      50.126150000000003     46.771850000000001     46.905699999999996
H      47.071549999999995     48.396349999999998     50.482900000000001
H      45.697350000000000     47.538850000000011     48.567999999999998
H      45.144950000000001     48.695650000000001     49.313000000000002
H      45.814149999999998     50.679850000000002     47.498400000000004
H      45.295749999999998     49.017150000000001     46.712299999999999
H      47.527049999999996     49.757150000000010     49.622700000000009
H      47.109949999999991     48.924750000000003     45.662899999999993
H      47.989449999999998     50.081450000000004     46.270300000000006
H      48.867650000000005     46.588149999999999     50.013400000000004
H      50.043050000000001     48.365450000000010     45.517099999999999
H      50.525250000000000     45.320149999999998     48.349099999999993
H      50.855049999999999     46.602550000000008     46.079499999999996
