19

C      48.473029999999994     46.442599999999999     48.952149999999989
C      49.765669999999986     46.104599999999998     48.745549999999994
C      46.156700000000015     47.473100000000009     48.308850000000007
C      50.428379999999990     47.182800000000007     47.981350000000006
C      47.735739999999993     47.406800000000011     48.151650000000004
C      48.425519999999992     48.578499999999998     47.591650000000001
C      45.576000000000008     48.322900000000011     47.113150000000005
C      47.712239999999994     49.833199999999998     47.288950000000000
C      46.347600000000014     49.424399999999999     46.837649999999996
C      49.813189999999992     48.436100000000003     47.588849999999994
H      48.095630000000000     45.585200000000007     49.516450000000006
H      50.318320000000000     45.184300000000000     49.150850000000005
H      45.847600000000000     47.889299999999999     49.370249999999999
H      45.464599999999990     46.633299999999998     48.199349999999995
H      51.437899999999999     47.068300000000001     47.568650000000005
H      44.562100000000001     48.353400000000001     46.643150000000006
H      48.267199999999988     50.815700000000000     47.183949999999996
H      45.655500000000004     50.154000000000003     46.483549999999994
H      50.472089999999994     49.228000000000002     47.290149999999997
