6

C      48.475649999999995     47.554349999999999     48.238899999999994
C      47.543749999999996     48.177650000000000     47.365400000000001
H      48.160649999999997     46.918350000000004     49.173900000000003
H      49.547950000000000     47.897950000000009     48.390900000000002
H      46.452050000000000     47.816249999999997     47.230800000000002
H      47.781149999999997     49.081649999999996     46.826099999999997
