22

C      47.747109999999992     49.585056999999985     48.695899999999995
C      46.847990000000010     48.709145000000007     49.177000000000000
C      49.262320000000003     49.137445000000007     48.377299999999998
C      48.754960000000011     47.024744999999982     49.608399999999996
C      48.727180000000018     47.579245000000014     48.227899999999998
C      47.376900000000006     47.479844999999997     48.136900000000004
C      49.602420000000009     46.952044999999998     47.280799999999992
C      46.544660000000007     46.744145000000003     46.961099999999995
C      48.998630000000006     46.060345000000005     46.238399999999992
C      47.529550000000000     45.992045000000019     46.274099999999997
H      47.144919999999999     49.909110999999996     47.786999999999999
H      47.764130000000009     50.645555000000002     49.223599999999998
H      45.678480000000008     48.850645000000014     48.723199999999999
H      46.910270000000011     48.312445000000011     50.306300000000000
H      50.401810000000012     49.296044999999985     48.907800000000002
H      49.613130000000012     49.463947999999995     47.374299999999998
H      48.493470000000002     47.687344999999979     50.484100000000005
H      49.343040000000016     46.165144999999988     49.777600000000000
H      50.536709999999999     47.582744999999981     47.244099999999996
H      45.463290000000001     46.732545000000002     46.881700000000002
H      49.508430000000004     45.354444999999998     45.717099999999995
H      46.939190000000011     45.430645000000013     45.515899999999995
