22

C      48.794049999999999     50.177934999999998     47.244279999999989
C      47.750749999999996     50.304225000000017     48.556480000000001
C      48.777450000000002     48.676845000000014     46.661279999999998
C      46.590649999999997     49.202293000000004     48.706780000000002
C      48.296049999999994     47.615545000000019     47.664679999999997
C      47.014150000000001     47.702345000000001     48.451879999999996
C      49.344949999999997     46.732345000000009     48.159279999999995
C      46.580349999999996     46.614345000000014     49.263579999999997
C      49.259850000000000     45.766245000000019     49.290479999999995
C      47.828050000000005     45.767945000000012     49.620880000000000
H      48.478750000000005     50.854495000000000     46.569179999999996
H      49.921449999999993     50.230745000000006     47.513579999999997
H      47.005150000000000     51.049154999999999     48.573779999999992
H      48.360550000000003     50.179465000000008     49.412379999999992
H      49.685850000000002     48.376545000000021     46.178189999999994
H      48.077550000000002     48.944578000000007     45.645119999999999
H      45.737250000000003     49.460698000000008     47.951780000000007
H      46.200749999999999     49.091626000000005     49.703979999999994
H      50.262749999999997     46.772445000000019     47.663579999999996
H      45.782449999999997     46.794844999999995     49.937979999999996
H      49.824349999999995     44.950845000000001     49.571080000000002
H      47.730149999999995     45.028045000000006     50.354880000000001
