21

C      49.494679999999995     49.532049999999984     48.431499999999993
C      48.456330000000001     49.032749999999993     47.295299999999997
C      49.040799999999997     49.391549999999995     49.911400000000000
C      48.553910000000002     47.369749999999996     47.310200000000002
C      48.712199999999996     47.850849999999994     49.810999999999993
C      48.114449999999998     46.895349999999993     48.699700000000007
C      49.166629999999998     46.562249999999992     49.670900000000003
C      47.504559999999998     46.960549999999998     46.286100000000005
C      46.975940000000001     46.062749999999994     48.286500000000004
C      46.445689999999999     46.213349999999991     46.961900000000000
H      50.405239999999999     49.108449999999991     48.431399999999996
H      49.593209999999999     50.632850000000005     48.228099999999998
H      48.980379999999997     49.524749999999997     46.416699999999999
H      47.510799999999996     49.518149999999991     47.579200000000000
H      49.796160000000000     49.681849999999997     50.597600000000000
H      47.941099999999999     49.914649999999995     50.104600000000005
H      49.572270000000003     47.317549999999997     47.156100000000002
H      49.511570000000006     45.883349999999993     50.364100000000008
H      48.103609999999996     47.184749999999994     45.402400000000000
H      46.357889999999998     45.367149999999995     48.975700000000003
H      45.594760000000001     45.625950000000003     46.398099999999999
