22

C      46.068404999999998     47.141099999999987     50.768399999999993
C      47.985304999999997     48.670900000000003     49.267899999999997
C      48.069415000000006     47.460200000000000     47.153399999999991
C      47.124705000000006     47.126800000000003     49.585399999999993
C      49.378814999999989     47.729500000000002     46.198899999999995
C      48.215355000000002     47.444199999999995     48.697999999999993
C      49.965895000000003     47.251300000000001     45.076399999999992
C      49.565025000000006     48.234799999999993     48.942899999999995
C      50.045154999999994     49.038200000000003     46.497299999999996
C      50.237934999999993     49.107299999999995     47.896599999999992
H      46.197254999999998     46.450800000000001     51.558599999999998
H      46.154214999999994     48.175700000000006     51.381000000000000
H      44.807164999999998     46.880600000000001     51.151399999999995
H      47.304355000000001     49.368799999999993     48.665799999999990
H      47.097054999999997     48.136600000000001     46.914099999999991
H      47.474064999999996     46.527900000000002     46.904199999999989
H      50.621234999999999     47.887600000000006     44.552099999999996
H      46.924475000000001     46.422899999999998     48.703199999999995
H      49.397874999999999     46.342699999999994     44.441400000000002
H      49.996444999999994     48.430999999999997     49.962999999999994
H      50.809734999999989     49.155500000000004     45.761899999999997
H      51.192835000000002     49.657300000000006     48.024999999999991
