22

C      48.792194999999992     47.148249999999990     45.421349999999990
C      49.724194999999995     47.647550000000003     46.416450000000005
C      47.435134999999988     46.870650000000005     46.162650000000006
C      49.100714999999994     49.024149999999999     47.063549999999999
C      47.130775000000000     47.521549999999998     47.663649999999997
C      47.819744999999998     48.651249999999997     47.982250000000001
C      46.278593999999998     47.148550000000007     48.643250000000002
C      47.796854999999994     49.269050000000000     49.282050000000005
C      46.229285999999988     47.771949999999997     50.041649999999997
C      47.213054999999997     48.687350000000002     50.538549999999994
H      49.038454999999985     46.186850000000000     44.856850000000001
H      48.769494999999992     47.739749999999994     44.489950000000000
H      50.568754999999996     47.885650000000005     45.758450000000003
H      49.875944999999987     46.703349999999993     47.174050000000001
H      47.348774999999989     45.831550000000000     46.472550000000005
H      46.640020999999990     46.977049999999998     45.586850000000005
H      49.733864999999980     49.853950000000005     47.627950000000006
H      49.024834999999996     49.583949999999994     45.980749999999993
H      45.632044999999991     46.289750000000005     48.580549999999995
H      48.403444999999991     50.168450000000000     49.293650000000007
H      45.431245000000004     47.214149999999997     50.598850000000006
H      47.133134999999996     48.849449999999997     51.510050000000000
