62

C      44.874759999999988     41.930749999999989     53.238299999999995
C      49.162819999999996     48.559350000000002     47.622800000000012
C      49.424019999999999     47.938549999999999     46.182300000000012
C      47.368120000000005     46.166549999999994     50.333900000000000
C      46.151820000000001     45.506749999999997     50.214200000000005
C      49.890419999999992     45.882150000000003     47.063600000000008
C      48.965419999999995     46.392050000000005     46.164300000000011
C      47.181419999999996     44.785649999999997     49.665700000000001
C      48.423219999999993     47.566649999999996     48.478300000000004
C      48.257520000000000     46.445950000000003     47.580100000000002
C      49.172719999999998     49.999049999999997     48.029600000000002
C      49.661619999999999     50.759049999999995     46.791300000000007
C      49.768219999999999     50.262750000000004     45.511200000000002
C      49.726919999999993     48.859449999999988     45.106500000000011
C      45.206519999999998     44.729049999999994     50.994000000000000
C      45.424019999999999     43.430450000000000     51.311199999999999
C      46.761519999999997     42.743350000000000     51.220500000000001
C      47.771220000000000     43.495449999999998     50.278300000000002
C      48.694419999999994     50.673750000000005     49.326800000000006
C      49.230220000000003     52.019149999999996     49.576700000000002
C      49.861819999999994     52.657449999999997     48.419400000000010
C      50.050219999999996     52.185849999999995     47.061900000000009
C      48.305319999999995     42.396349999999998     49.594800000000006
C      47.485519999999994     45.121950000000005     48.016800000000003
C      50.621719999999996     53.914049999999996     48.848000000000013
C      44.257929999999995     42.960249999999995     52.397300000000001
C      50.321019999999990     45.330249999999999     42.803600000000003
C      52.034419999999997     44.720149999999997     46.173700000000011
C      50.598020000000005     44.662749999999996     44.194300000000013
C      51.434320000000000     43.982049999999994     45.124500000000012
C      49.764719999999997     43.958049999999993     43.188900000000004
C      51.695619999999991     42.648849999999989     44.832100000000011
C      50.142319999999998     42.629549999999988     42.792100000000005
C      51.019719999999992     42.015350000000005     43.686800000000005
H      48.798620000000000     45.925049999999992     45.234900000000010
H      50.415019999999998     50.998849999999997     45.080900000000014
H      49.778019999999998     48.455349999999996     44.197300000000013
H      44.249349999999993     45.056149999999995     51.297000000000011
H      46.954020000000000     42.026549999999993     51.964700000000008
H      47.925819999999987     50.228249999999996     49.866200000000006
H      48.875119999999995     52.689649999999993     50.508500000000012
H      50.714119999999994     52.739649999999997     46.365000000000009
H      47.726819999999989     48.405650000000001     50.390200000000007
H      46.660520000000005     45.807449999999996     47.862600000000000
H      47.634719999999994     44.258049999999990     47.327000000000012
H      50.662019999999998     53.670449999999995     49.891500000000008
H      50.200519999999997     55.023750000000000     48.943000000000012
H      51.573219999999992     54.185349999999993     48.332600000000014
H      43.072479999999999     42.761049999999997     52.388000000000005
H      44.049569999999996     43.809049999999992     52.993700000000004
H      50.942219999999992     45.234749999999998     42.043700000000001
H      49.498019999999997     46.026050000000005     42.542400000000001
H      52.240819999999999     45.804949999999998     45.844900000000010
H      52.927520000000001     44.165249999999993     46.525400000000005
H      48.623219999999989     44.049849999999999     43.364800000000002
H      52.371619999999993     41.960949999999997     45.388900000000007
H      49.673019999999994     42.127849999999995     42.126800000000003
H      51.089019999999991     40.976250000000000     43.612100000000012
N      48.028919999999999     47.312449999999998     49.875000000000000
O      45.241669999999999     41.173649999999995     53.956299999999999
O      48.579120000000003     41.556249999999999     48.862000000000009
O      50.753320000000002     45.156349999999996     47.356100000000012
