22

C      46.259599999999992     49.176524999999998     47.247999999999990
C      46.609900000000010     50.366525000000003     48.246399999999994
C      47.400099999999995     48.502735000000001     46.644099999999995
C      48.190600000000003     50.149374999999999     48.511500000000012
C      48.316600000000008     47.742655000000006     47.581199999999995
C      49.009000000000000     48.636794999999999     48.481600000000000
C      48.149100000000004     46.309325000000001     47.874300000000005
C      49.912300000000002     48.040975000000003     49.372900000000001
C      48.840600000000009     45.713865000000006     49.008200000000002
C      49.889200000000002     46.586365000000001     49.630700000000004
H      45.846199999999996     50.021275000000010     46.456800000000001
H      45.434299999999993     48.461395000000003     47.628799999999998
H      45.765000000000001     50.620705000000008     48.702200000000005
H      46.676700000000011     51.349544999999999     47.862499999999997
H      47.354900000000001     47.760865000000003     45.616299999999995
H      48.163399999999996     49.243974999999999     46.133600000000001
H      48.306400000000011     50.367545000000000     49.597800000000007
H      48.778900000000007     50.626025000000006     47.962099999999992
H      47.242199999999997     45.900085000000004     47.356600000000000
H      50.565700000000007     48.698585000000001     49.881299999999996
H      48.885900000000007     44.650455000000001     49.210100000000011
H      50.516700000000000     46.143575000000006     50.383700000000005
