17

C      48.458649999999992     46.005349999999993     49.622399999999999
C      45.967950000000002     49.519349999999996     48.047700000000006
C      48.436250000000001     48.053149999999995     48.094899999999996
C      47.425349999999995     49.032750000000000     47.762600000000006
C      48.094049999999996     49.562850000000005     46.572800000000001
C      48.417850000000001     47.375049999999995     49.498900000000006
C      49.174350000000004     48.694849999999995     46.101399999999998
C      49.601150000000004     47.927050000000001     47.321799999999996
H      46.255449999999996     50.503250000000001     48.619699999999995
H      48.653149999999997     45.498349999999995     50.728099999999998
H      48.478950000000012     45.496749999999999     48.748199999999997
H      45.566050000000004     50.091850000000001     47.121800000000007
H      45.348349999999996     48.859450000000002     48.595900000000000
H      47.786249999999995     50.352849999999997     45.982500000000002
H      48.287850000000006     47.842049999999993     50.382199999999997
H      49.843950000000007     49.332550000000005     45.271900000000002
H      50.651650000000004     47.471349999999994     47.667299999999997
