22

C      46.944199999999988     46.923499999999983     50.060749999999999
C      48.431799999999996     46.556299999999993     50.301750000000006
C      46.618099999999998     48.388599999999997     49.693249999999999
C      49.334000000000003     46.574299999999994     48.921250000000008
C      47.661400000000000     48.692799999999991     48.439650000000007
C      48.806600000000003     47.882799999999989     48.182650000000002
C      47.213099999999997     49.701899999999995     47.553950000000007
C      49.314900000000009     48.066599999999994     46.906250000000007
C      47.805199999999999     49.961900000000000     46.302749999999996
C      48.869100000000003     49.042000000000002     45.978150000000007
H      46.374400000000009     46.861599999999996     50.946550000000009
H      46.441500000000005     46.199399999999997     49.393650000000001
H      48.962900000000005     47.213399999999993     50.951850000000000
H      48.347899999999996     45.583100000000002     50.751950000000001
H      46.905299999999997     49.138300000000001     50.446249999999999
H      45.416499999999999     48.541600000000003     49.295850000000009
H      50.583500000000001     46.754999999999995     49.408549999999998
H      49.627600000000001     45.412199999999999     48.973850000000006
H      46.323800000000006     50.479699999999994     47.908850000000008
H      50.218400000000003     47.261499999999998     46.519150000000003
H      47.383700000000005     50.587800000000001     45.642150000000008
H      49.493600000000001     49.030199999999994     45.048150000000000
