99

C      47.408009999999990     45.788999999999994     50.580614999999995
C      48.450809999999997     44.909900000000000     50.255015000000000
C      44.263809999999985     45.070700000000002     47.850315000000002
C      44.935609999999990     46.384000000000000     49.817515000000000
C      47.315809999999992     43.172200000000004     49.114915000000003
C      44.312009999999994     46.396300000000011     48.415115000000000
C      44.907009999999993     43.862300000000005     48.152815000000004
C      46.078809999999997     45.407400000000003     49.803914999999996
C      45.972609999999996     44.045300000000005     49.111314999999998
C      47.499109999999995     47.289900000000003     50.831015000000001
C      48.628009999999996     46.457200000000000     50.257015000000003
C      45.585409999999989     43.888400000000004     50.717914999999998
C      48.446009999999994     43.544000000000004     49.544215000000001
C      44.931009999999993     47.878399999999999     50.217914999999998
C      45.737609999999997     48.823700000000002     51.396814999999997
C      47.067909999999991     48.410299999999992     51.645315000000004
C      43.324609999999986     48.433900000000001     50.624815000000005
C      47.733109999999989     48.256199999999993     53.126314999999998
C      49.114309999999996     47.516499999999994     53.458215000000003
C      43.844209999999997     45.085300000000004     46.296215000000004
C      47.956709999999994     49.653800000000004     51.146014999999998
C      49.241509999999998     46.708699999999993     48.760515000000005
C      45.218009999999985     51.972000000000008     48.459814999999999
C      44.639209999999999     51.784300000000002     47.019815000000001
C      51.889209999999999     49.776400000000010     45.400115000000000
C      51.031309999999998     49.857799999999997     44.152715000000001
C      46.649109999999986     52.421599999999998     48.633215000000000
C      45.624809999999989     51.986900000000006     46.096915000000003
C      50.922209999999986     50.035100000000000     46.475014999999999
C      49.691009999999999     50.313900000000004     44.152115000000002
C      49.092209999999987     51.503600000000006     47.773614999999999
C      47.754709999999996     51.720100000000002     45.066015000000000
C      47.650809999999986     51.985399999999998     47.550015000000002
C      47.037109999999991     51.831100000000006     46.261915000000002
C      49.763009999999987     50.950200000000009     46.456814999999999
C      49.075109999999988     51.141700000000000     45.153415000000003
C      44.109109999999994     51.909999999999997     49.452114999999999
C      42.630109999999995     51.579599999999999     49.212915000000002
C      42.360609999999987     51.644199999999998     47.735215000000004
C      43.231909999999992     51.603500000000004     46.644515000000006
C      53.138579999999997     48.988900000000001     45.143715000000000
C      54.005479999999999     48.855600000000010     44.063015000000000
C      53.192940000000000     49.119299999999996     42.884515000000000
C      51.756209999999989     49.351200000000006     42.959215000000000
C      44.736709999999995     51.812300000000008     50.855115000000005
C      43.822909999999986     51.391199999999998     51.948715000000000
C      42.544409999999992     50.865400000000008     51.683815000000003
C      41.953509999999987     51.080600000000004     50.389915000000002
C      46.127909999999993     52.216099999999997     51.049115000000008
C      46.992909999999988     52.648800000000008     50.055115000000001
C      48.495109999999990     52.892300000000006     49.895215000000000
C      48.891609999999993     51.443400000000011     49.215314999999997
C      48.188509999999987     49.942499999999995     49.542414999999998
C      51.372109999999985     49.348100000000002     47.716715000000001
H      47.104609999999987     42.221800000000002     48.727115000000005
H      43.854309999999991     47.184899999999999     47.678514999999997
H      44.923909999999985     42.918100000000003     47.499414999999999
H      49.305609999999994     42.833100000000002     49.631515000000000
H      45.484409999999990     48.333100000000002     49.354615000000003
H      45.674309999999998     49.723700000000008     50.776215000000001
H      45.216009999999990     48.491599999999998     52.360414999999996
H      43.365009999999991     49.447700000000012     50.772415000000002
H      42.917809999999996     48.428600000000003     49.622515000000000
H      42.693809999999992     47.950200000000009     51.404815000000006
H      47.451009999999989     49.022800000000004     53.727615000000000
H      47.005209999999998     47.379700000000000     53.176015000000000
H      49.559509999999996     46.868200000000002     52.554115000000003
H      48.998809999999999     46.579400000000000     54.071514999999998
H      49.781709999999997     48.037300000000002     53.891614999999994
H      44.251009999999987     44.364300000000000     45.710614999999997
H      44.503209999999989     45.991199999999999     45.818615000000001
H      42.857509999999998     45.328400000000002     45.791114999999998
H      48.851109999999998     49.039699999999996     51.411315000000009
H      48.254309999999997     50.578400000000002     51.752915000000009
H      49.494609999999987     45.896700000000010     48.146915000000000
H      49.871109999999994     47.730400000000003     48.958715000000005
H      48.406009999999988     46.902400000000000     48.069515000000003
H      45.056009999999993     51.847099999999998     45.045214999999999
H      49.333109999999998     50.046000000000006     43.187514999999998
H      47.177509999999991     51.996499999999997     44.197814999999999
H      41.416709999999988     51.314200000000000     47.267915000000002
H      42.556609999999985     51.325000000000003     45.649915000000000
H      53.909860000000002     48.632700000000000     46.084415000000000
H      55.025690000000004     48.437200000000004     44.053715000000004
H      53.737240000000000     49.115099999999998     41.928485000000002
H      51.361109999999989     49.244100000000003     42.002135000000003
H      44.197809999999997     50.960300000000004     52.866715000000006
H      41.984109999999994     50.772500000000001     52.478015000000006
H      40.974309999999996     51.027699999999996     50.356915000000001
H      46.534209999999995     52.491799999999998     52.033515000000001
H      49.210409999999989     52.765100000000004     50.799315000000000
H      48.819809999999997     53.778199999999998     49.339514999999999
H      49.976109999999998     51.254100000000001     49.697814999999999
H      48.902809999999995     49.144300000000001     49.189115000000001
H      47.127909999999993     49.733699999999999     49.221415000000000
H      51.076909999999991     48.305900000000008     47.848215000000003
H      52.421249999999993     49.201700000000002     47.385314999999999
H      51.256209999999989     49.824399999999997     48.847315000000002
O      45.894409999999986     43.287500000000001     51.604215000000003
