16

C      46.611849999999990     48.810799999999993     48.114199999999997
C      48.122749999999996     47.347299999999997     45.993000000000002
C      47.677350000000004     48.280799999999999     47.054099999999998
C      47.897950000000009     48.089299999999994     48.498600000000003
C      47.552850000000007     46.952799999999996     49.166400000000003
C      48.826450000000008     49.034000000000006     49.404400000000003
C      48.601950000000002     46.699900000000000     50.027700000000003
C      49.360849999999999     48.103299999999997     50.163699999999999
H      45.753749999999997     48.429600000000001     47.506700000000002
H      46.388750000000002     49.993899999999996     48.273100000000007
H      47.656450000000007     46.283699999999996     45.871800000000000
H      48.554450000000003     47.789600000000000     45.086800000000004
H      46.590350000000001     46.295899999999996     48.767299999999999
H      48.705150000000003     50.135700000000000     49.443800000000003
H      48.545050000000003     45.864300000000000     50.677299999999995
H      50.246250000000003     48.449999999999996     50.913199999999996
