6

C      48.293499999999995     48.527199999999993     47.539799999999985
C      47.706400000000002     47.574500000000000     48.395199999999996
H      49.373799999999996     48.705400000000012     47.569899999999997
H      47.779900000000005     49.347300000000004     47.423899999999996
H      46.626200000000004     47.323700000000002     48.379299999999994
H      48.107500000000002     46.652699999999996     48.576100000000004
