22

C      48.842999999999989     45.403004999999993     47.620049999999999
C      47.890500000000003     45.666108000000001     48.837350000000001
C      49.741200000000006     46.705925000000001     47.199850000000005
C      46.883200000000002     46.582985000000015     48.274850000000001
C      48.778700000000001     47.960565000000010     47.135249999999999
C      47.540499999999994     48.014305000000000     47.813550000000006
C      49.309700000000007     49.437045000000005     46.941650000000003
C      46.716200000000001     49.126235000000001     48.117249999999999
C      48.560699999999997     50.488895000000007     47.234950000000005
C      47.311700000000002     50.470005000000008     47.835550000000012
H      48.097499999999997     45.235804999999992     46.540950000000002
H      49.527200000000008     44.492404999999998     47.578950000000006
H      47.426299999999998     44.656505000000003     48.904949999999999
H      48.508799999999994     45.957695000000001     49.681049999999999
H      50.205900000000000     46.796795000000010     46.318950000000001
H      50.507000000000005     47.016205000000006     47.848250000000007
H      45.991600000000005     46.882214999999995     48.799250000000001
H      46.497299999999996     46.067539000000004     47.506550000000004
H      50.331299999999999     49.518385000000002     46.577250000000006
H      45.492999999999995     48.823975000000004     48.352350000000001
H      49.173400000000001     51.507595000000002     47.072749999999999
H      46.812399999999997     51.353605000000002     47.869850000000000
