34

C      49.337179999999996     46.579349999999991     48.811249999999987
C      48.549560000000000     47.986349999999995     50.982750000000003
C      47.804119000000000     49.543249999999993     47.740249999999996
C      49.013159999999999     46.942850000000000     47.569949999999999
C      48.590789999999998     49.450150000000001     51.442149999999991
C      48.400480000000002     48.300149999999995     47.169549999999994
C      48.991650000000000     47.684750000000001     49.824649999999998
C      48.855319999999999     49.218349999999994     49.856149999999992
C      48.763880000000000     45.991449999999993     46.351849999999992
C      48.426977000000001     46.993549999999992     45.367550000000001
C      47.896649000000004     48.336750000000002     45.696350000000002
C      47.892330000000001     46.238250000000001     44.072849999999995
C      46.284590000000009     48.147150000000003     45.344850000000001
C      47.112289999999987     47.323549999999990     51.086350000000003
C      49.834479999999999     47.311850000000000     44.873349999999995
H      49.290070000000000     45.469649999999994     49.171349999999997
H      46.902890000000006     50.129449999999999     47.256749999999990
H      47.234490000000015     50.826349999999998     49.352950000000000
H      49.399950000000004     45.173650000000002     46.148149999999994
H      48.089303999999998     49.161949999999997     44.928649999999998
H      47.227989999999991     45.624149999999993     44.550549999999994
H      48.517972000000000     45.541649999999997     43.630649999999996
H      47.520690000000030     47.267049999999990     43.532350000000001
H      45.925989999999999     48.002249999999997     46.195549999999990
H      45.431590000000000     49.128750000000004     45.114249999999991
H      45.914790000000011     47.190249999999999     44.759049999999995
H      47.405190000000033     46.232949999999995     50.899749999999990
H      46.556090000000005     47.786949999999997     52.113949999999996
H      46.503690000000034     47.700550000000000     50.263050000000000
H      49.469030000000004     47.990050000000004     43.857149999999997
H      50.568410000000000     46.456550000000000     44.763950000000001
H      50.202609999999993     48.076850000000000     45.504550000000002
N      48.059413999999997     50.137250000000002     48.919549999999994
O      48.228292000000003     49.948450000000001     52.467649999999999
