22

C      49.102149999999995     48.008800000000001     50.179799999999993
C      47.698950000000004     47.822100000000006     50.736099999999993
C      49.217750000000002     49.109099999999998     48.880099999999999
C      47.124850000000002     46.874200000000002     49.580900000000000
C      48.214550000000003     48.639900000000011     47.788100000000000
C      47.311750000000004     47.653400000000005     48.207099999999997
C      47.833750000000002     49.176299999999998     46.389700000000005
C      46.314150000000005     46.996900000000011     47.310999999999993
C      46.895150000000001     48.788400000000010     45.383399999999995
C      46.421650000000000     47.527200000000008     46.007300000000001
H      49.567249999999994     47.103200000000001     49.875399999999999
H      49.602950000000000     48.575100000000006     51.076899999999995
H      47.257449999999999     48.793000000000006     50.771000000000001
H      47.570650000000001     47.440400000000011     51.718500000000006
H      50.285149999999994     49.301600000000008     48.994399999999999
H      48.829150000000006     50.185000000000002     49.273300000000006
H      47.750450000000001     46.074300000000008     49.358000000000004
H      46.178750000000001     46.549100000000010     49.684100000000001
H      48.716950000000004     49.734700000000004     46.022800000000004
H      45.714850000000006     45.814999999999998     47.533699999999996
H      46.707450000000001     49.179400000000001     44.281499999999994
H      45.922450000000005     47.225999999999999     45.091700000000003
