22

C      45.833799999999997     48.171099999999996     47.155299999999997
C      46.066700000000004     46.674499999999995     46.928500000000000
C      47.543799999999997     48.444000000000003     49.335599999999999
C      47.416300000000000     46.181600000000003     47.897099999999995
C      47.029099999999993     48.684399999999997     47.817599999999999
C      48.076000000000001     47.576700000000002     48.090299999999999
C      47.925999999999995     49.534700000000001     46.950000000000003
C      49.509899999999995     47.626099999999994     48.255700000000004
C      49.240400000000001     49.815099999999987     46.914900000000003
C      50.014699999999998     48.676199999999994     47.528400000000005
H      44.925000000000004     48.223600000000005     47.741199999999992
H      45.583099999999995     48.639399999999995     46.009100000000004
H      46.511999999999993     46.658400000000000     46.012699999999995
H      45.123500000000000     45.963999999999999     46.889799999999994
H      47.664700000000003     49.109399999999994     49.990899999999996
H      46.929099999999998     47.677199999999999     49.964600000000004
H      48.052000000000000     45.527600000000007     47.192099999999996
H      46.979499999999994     45.705600000000004     48.845799999999997
H      47.311399999999999     50.405999999999992     46.424999999999997
H      50.392599999999995     46.819100000000006     48.248099999999994
H      49.772200000000005     50.472399999999993     46.084999999999994
H      51.074999999999996     48.607799999999997     47.522000000000006
