7

C      47.958499999999987     46.669899999999991     47.504649999999998
C      48.921899999999994     49.192700000000002     49.211649999999999
H      46.865600000000001     46.389499999999998     47.366950000000003
H      48.438500000000005     45.737200000000001     47.471049999999998
H      48.030200000000008     47.541300000000000     46.788350000000001
O      48.928899999999999     50.262799999999999     49.069650000000003
S      49.134399999999999     47.260700000000000     49.190350000000002
