20

C      49.663199999999989     49.416399999999996     46.711549999999988
C      50.208600000000004     48.060000000000002     47.094549999999998
C      48.250799999999998     49.806300000000007     47.087350000000001
C      49.605800000000002     47.044799999999995     47.778450000000007
C      47.557000000000002     48.738000000000000     48.099550000000008
C      48.178700000000006     47.313000000000002     48.229349999999997
C      46.459299999999999     49.134600000000006     48.782449999999997
C      47.384100000000004     46.335700000000003     48.889250000000004
C      45.788700000000006     48.033500000000004     49.668449999999993
C      45.974900000000005     46.737300000000005     49.418850000000006
H      50.234099999999998     49.915999999999997     45.836749999999995
H      49.997900000000001     50.273399999999995     47.381150000000005
H      50.194800000000015     46.087599999999995     48.115750000000006
H      51.241799999999998     47.936099999999996     46.990350000000007
H      47.654399999999995     49.955900000000000     46.274249999999995
H      48.518900000000002     50.676599999999993     47.772450000000006
H      46.011400000000009     50.091099999999997     48.391149999999996
H      47.827799999999996     45.323400000000007     49.006749999999997
H      44.758200000000002     48.229500000000002     50.163250000000005
H      45.186400000000006     45.640200000000007     49.617350000000002
