6

C      47.802749999999996     48.157849999999989     47.576954999999991
C      47.981750000000005     47.668749999999996     48.738275000000002
H      48.249350000000007     49.110550000000003     47.315795000000001
H      47.114249999999998     47.676949999999991     46.676225000000002
H      48.885750000000002     48.135049999999993     49.323774999999998
H      47.340350000000001     46.889449999999997     49.150175000000004
