22

C      46.081000000000003     48.102999999999994     46.220399999999998
C      45.566600000000001     47.156899999999993     47.370600000000010
C      47.609100000000005     47.849699999999999     45.952800000000011
C      46.412600000000005     47.389099999999999     48.803100000000001
C      48.389300000000013     48.365299999999991     47.220000000000013
C      47.786300000000004     48.157299999999992     48.577900000000000
C      49.680700000000009     48.924199999999999     47.097700000000003
C      48.353000000000002     48.361699999999999     49.871600000000001
C      50.297300000000000     49.351100000000002     48.410300000000007
C      49.588100000000004     49.014299999999992     49.578700000000012
H      45.825800000000008     47.783199999999994     45.215199999999996
H      45.716400000000000     49.158999999999992     46.113500000000002
H      44.672699999999999     47.388399999999990     48.042100000000005
H      45.667700000000004     46.131399999999999     46.917000000000002
H      48.235700000000001     47.246099999999998     45.243000000000009
H      47.995200000000004     48.615699999999990     45.189599999999999
H      45.640000000000008     47.891199999999998     49.421900000000008
H      46.596400000000010     46.332999999999998     48.793200000000013
H      50.172900000000006     49.011199999999988     46.036300000000011
H      48.020400000000002     48.011299999999991     50.810400000000001
H      51.327300000000001     49.868600000000001     48.359000000000009
H      50.103300000000011     49.298799999999986     50.411000000000001
