22

C      47.722804999999994     49.799700000000001     46.261499999999998
C      49.217614999999995     49.808000000000000     47.008600000000001
C      46.580294999999992     48.972000000000001     47.219099999999997
C      49.664414999999991     48.472699999999996     47.607399999999998
C      47.204515000000001     47.869999999999997     48.168999999999997
C      48.656444999999991     47.798000000000009     48.490200000000002
C      46.441974999999999     46.794000000000004     48.753500000000003
C      49.161214999999999     46.978400000000001     49.497699999999995
C      47.030724999999990     45.942299999999996     49.773999999999987
C      48.380114999999989     46.019300000000008     50.323999999999998
H      47.849525000000000     49.717000000000006     45.131200000000007
H      47.187754999999996     50.838299999999997     46.367900000000006
H      48.669354999999996     50.311200000000007     47.748799999999989
H      49.959614999999985     50.505000000000003     46.432499999999990
H      45.649154999999993     48.657100000000007     46.650199999999998
H      46.116444999999999     49.495100000000001     48.085499999999996
H      50.066214999999985     47.913699999999999     46.694499999999991
H      50.689914999999999     48.609100000000005     48.248099999999994
H      45.310085000000001     46.839700000000001     48.513400000000004
H      50.128514999999993     46.630200000000009     49.727899999999991
H      46.303344999999993     45.319499999999998     50.353099999999998
H      48.790524999999988     45.161700000000003     50.868799999999993
