61

C      47.155900000000003     51.067850000000000     48.902899999999995
C      48.414200000000001     43.885649999999998     48.839900000000000
C      46.941899999999997     50.337850000000003     47.574700000000007
C      48.215800000000009     44.499250000000004     47.546199999999999
C      47.586700000000000     50.423850000000002     50.213800000000006
C      48.490900000000003     44.401650000000004     50.073100000000011
C      47.200099999999999     48.141850000000005     46.183000000000007
C      47.798600000000000     46.771550000000005     46.277100000000004
C      48.514500000000005     48.196250000000006     50.961399999999998
C      47.373500000000000     48.924050000000008     47.429600000000008
C      48.049799999999998     45.963850000000008     47.550100000000000
C      47.918700000000008     49.017150000000001     49.871000000000009
C      48.328600000000002     45.971850000000003     50.032600000000002
C      47.697899999999997     48.176150000000007     48.637000000000000
C      48.045000000000009     46.782450000000011     48.776300000000006
C      47.183200000000006     52.540250000000000     48.877300000000005
C      45.996900000000004     53.132249999999999     47.135300000000001
C      46.451900000000002     52.411850000000001     45.955200000000005
C      46.443500000000007     50.998550000000009     46.298299999999998
C      46.279299999999999     50.221750000000000     45.111800000000002
C      46.615500000000004     48.853750000000005     45.029300000000006
C      48.559400000000004     42.398150000000001     48.864000000000004
C      48.121299999999998     41.636949999999999     47.650800000000004
C      47.737200000000009     42.343350000000001     46.502499999999998
C      48.060200000000002     43.817149999999998     46.346600000000009
C      47.871000000000002     44.563250000000011     45.132500000000007
C      47.793100000000003     46.097050000000010     44.986699999999999
C      46.587300000000006     48.007850000000005     43.652000000000001
C      47.777800000000006     46.990150000000000     43.745800000000003
C      46.836100000000009     53.490650000000002     49.933300000000003
C      46.697200000000002     53.894150000000010     48.467200000000005
C      45.787399999999998     54.480850000000004     47.580300000000008
C      47.913800000000002     51.549450000000007     51.253000000000000
C      47.052700000000009     53.036450000000002     51.293100000000010
C      48.210600000000007     46.857750000000010     51.175800000000010
C      48.868699999999997     43.438350000000000     50.897300000000001
C      49.268099999999997     42.062250000000006     50.286700000000010
C      47.693600000000011     53.971249999999998     52.218000000000004
H      48.171900000000001     46.396749999999997     42.788499999999999
H      49.630600000000008     48.109949999999998     51.053600000000003
H      45.881800000000005     50.673250000000010     44.174700000000001
H      48.096400000000010     40.422150000000002     47.683900000000008
H      47.510700000000007     41.908050000000003     45.606000000000009
H      47.607500000000009     43.856549999999999     44.428500000000000
H      46.490500000000004     48.549149999999997     42.920400000000001
H      45.717300000000002     47.241650000000007     43.756100000000004
H      45.810400000000008     55.577849999999998     47.056600000000003
H      48.926099999999998     51.733350000000002     50.916600000000003
H      48.142400000000002     51.292550000000006     52.282100000000000
H      46.130100000000006     52.726950000000002     51.908100000000005
H      48.373399999999997     48.796550000000011     51.773099999999999
H      48.288400000000003     46.281550000000010     52.068500000000000
H      49.259900000000009     43.526750000000007     51.852000000000004
H      50.282699999999998     42.002050000000011     50.296900000000008
H      48.784300000000009     41.195250000000001     50.681200000000004
H      48.676000000000009     54.458250000000007     51.599100000000007
H      48.010899999999999     53.432950000000005     53.211500000000001
H      47.154200000000010     54.951650000000001     52.548299999999998
H      47.983300000000007     53.202350000000010     44.905799999999999
H      48.667900000000010     47.787850000000006     44.025600000000011
O      46.982900000000008     53.096650000000011     44.865499999999997
