22

C      46.273699999999991     46.632849999999991     46.698249999999987
C      47.025399999999991     46.146650000000008     48.007249999999999
C      47.137199999999993     47.634350000000012     46.183849999999993
C      47.118099999999998     47.351050000000001     49.175550000000001
C      48.097399999999993     48.444450000000003     47.248249999999999
C      48.113399999999999     48.546350000000004     48.680750000000003
C      49.120999999999995     49.388249999999999     46.929050000000004
C      48.945599999999999     49.135050000000007     49.713849999999994
C      50.119699999999995     50.059150000000002     47.823449999999994
C      49.693699999999993     50.277150000000006     49.122150000000005
H      45.048000000000002     47.009450000000001     46.674449999999993
H      46.174700000000001     45.836050000000000     46.141249999999999
H      48.073899999999995     45.897450000000006     47.900150000000011
H      46.746200000000002     45.078450000000004     48.500550000000004
H      47.591699999999989     47.331350000000015     45.185249999999996
H      46.506499999999988     48.406950000000009     45.663950000000000
H      47.697599999999994     47.039850000000015     50.068249999999992
H      46.175299999999993     47.919350000000009     49.423150000000007
H      49.280099999999990     49.225750000000005     45.664749999999998
H      48.932800000000000     49.087249999999997     50.814750000000004
H      50.951999999999998     50.894350000000003     47.534449999999993
H      50.279200000000003     50.921549999999996     49.929949999999991
