16

C      48.988349999999997     49.340149999999994     46.594249999999995
C      47.308249999999994     47.652250000000009     46.752250000000004
C      48.839549999999996     47.796950000000010     46.748049999999992
C      49.259149999999998     48.605450000000005     47.876249999999999
C      48.559850000000004     49.089050000000000     49.186549999999997
C      49.552950000000003     46.913550000000001     47.684950000000001
C      47.151450000000004     48.802149999999997     48.947749999999999
C      46.486849999999997     48.287950000000009     47.699249999999992
H      47.874350000000000     49.724249999999998     46.643149999999991
H      49.662650000000006     48.971850000000003     45.844549999999998
H      48.758350000000000     46.275750000000002     48.216949999999997
H      46.598850000000006     47.261449999999996     45.907749999999993
H      49.046950000000002     49.167450000000002     50.155450000000002
H      50.636350000000000     46.571950000000001     47.225849999999994
H      46.587449999999997     48.800650000000005     49.992750000000001
H      45.363650000000000     48.255350000000007     47.587850000000003
