86

C      42.824100000000001     47.050349999999995     48.411849999999994
C      50.881799999999998     49.878650000000000     45.735550000000003
C      51.052499999999995     49.104850000000006     50.855950000000007
C      50.980000000000004     48.924549999999996     46.746450000000003
C      51.323599999999999     48.533049999999996     49.402650000000008
C      50.220500000000001     51.035849999999996     45.873049999999999
C      49.961300000000008     50.314550000000004     50.999150000000000
C      49.672600000000003     52.793250000000008     47.947749999999999
C      49.887900000000002     52.581749999999992     49.350450000000009
C      51.040800000000004     49.374650000000010     48.183850000000007
C      50.270600000000002     51.611750000000008     47.225350000000006
C      50.220500000000001     51.151049999999991     49.746850000000009
C      50.557599999999994     50.624749999999999     48.440550000000002
C      52.183599999999998     48.280949999999997     44.074350000000003
C      52.552999999999997     47.409950000000002     45.113550000000004
C      51.730400000000003     47.602250000000005     46.310850000000002
C      51.634500000000003     46.266550000000002     45.760650000000005
C      50.638700000000000     47.199149999999996     49.010149999999996
C      51.895899999999997     47.186949999999996     49.421050000000008
C      53.315600000000003     46.733049999999999     49.753050000000002
C      54.039900000000003     46.955849999999998     45.340450000000004
C      49.633899999999997     52.205350000000003     44.958750000000002
C      48.637100000000004     50.340649999999989     51.669350000000009
C      50.015200000000007     51.189749999999997     52.228549999999998
C      47.988799999999998     45.527050000000003     44.242049999999999
C      43.677099999999996     47.064250000000008     46.372350000000004
C      48.199100000000001     49.194350000000000     47.032350000000008
C      48.298800000000000     44.241549999999997     43.814550000000004
C      44.503299999999996     48.287450000000000     46.905050000000003
C      47.735500000000002     50.497050000000009     47.184350000000009
C      47.048400000000001     49.325949999999999     47.771749999999997
C      49.334199999999996     44.964849999999998     44.733450000000005
C      45.752800000000008     48.928350000000002     47.263249999999999
C      45.959400000000002     46.836849999999998     44.860050000000001
C      47.176599999999993     46.530050000000003     44.860950000000003
C      46.818899999999999     47.928750000000001     44.719950000000004
C      44.663899999999998     46.621549999999999     45.437450000000005
C      47.555499999999995     49.135750000000009     49.398250000000004
C      50.240600000000001     46.008449999999996     45.180350000000004
C      42.759500000000003     46.284649999999999     47.095050000000001
C      42.280799999999999     47.412950000000002     45.780550000000005
C      44.504099999999994     49.187649999999998     47.945250000000001
C      46.551400000000001     46.503250000000001     49.430850000000007
C      47.655599999999993     47.635449999999999     50.176850000000002
H      53.870899999999992     46.477350000000001     48.694450000000003
H      52.003100000000003     49.782149999999994     50.663550000000001
H      49.632999999999996     53.778550000000003     47.541449999999998
H      49.832200000000000     53.293149999999990     50.197050000000004
H      52.983999999999995     48.252749999999999     43.337850000000003
H      52.005600000000001     45.457149999999999     46.351250000000000
H      49.984400000000008     46.203949999999999     49.060050000000004
H      54.130899999999997     47.698749999999997     50.387850000000000
H      53.304299999999998     45.968249999999998     50.518950000000004
H      54.103700000000003     45.995750000000001     45.985350000000004
H      54.648399999999995     47.461349999999989     46.170150000000000
H      54.501199999999997     46.657049999999998     44.311550000000004
H      49.411299999999997     52.110650000000000     43.572650000000003
H      49.986000000000004     53.126950000000001     45.158350000000006
H      48.706900000000005     52.618350000000000     45.376350000000002
H      48.269499999999994     49.437949999999994     51.743850000000009
H      47.893699999999995     51.147649999999999     51.398449999999997
H      50.096100000000007     50.505850000000002     53.084750000000000
H      50.020800000000008     52.232149999999997     52.388649999999998
H      51.629000000000005     50.534050000000001     43.611250000000005
H      47.280000000000001     42.497949999999996     42.915250000000000
H      49.000500000000002     48.475650000000009     46.935749999999999
H      47.315600000000003     51.596550000000001     47.335750000000004
H      46.947299999999998     48.803150000000009     44.272449999999999
H      46.878599999999992     49.559249999999999     50.068750000000009
H      48.483500000000006     49.396849999999993     49.197450000000003
H      49.399699999999996     46.859749999999998     45.291350000000001
H      51.403899999999993     47.472349999999999     43.323950000000004
H      44.191000000000003     45.852649999999997     45.083350000000003
H      41.923800000000000     45.907449999999997     46.851350000000004
H      44.501599999999996     49.291150000000009     49.042050000000003
H      46.980500000000006     45.989950000000000     48.609650000000002
H      46.078000000000003     45.789749999999998     50.111350000000002
H      47.141500000000008     47.745449999999998     51.037649999999999
H      48.495800000000003     46.988450000000000     50.285449999999997
H      48.701099999999997     42.221449999999997     44.041750000000000
H      51.038299999999992     48.824649999999998     51.952950000000001
H      45.442200000000000     46.838749999999997     48.835149999999999
N      51.685099999999991     49.758749999999999     44.510150000000003
N      48.091899999999995     42.896050000000002     43.462850000000003
O      42.921000000000006     47.470449999999992     49.454650000000001
O      41.351600000000005     48.107050000000008     45.430550000000004
