22

C      48.849049999999991     49.891699999999986     46.196999999999996
C      49.772750000000002     50.198099999999990     47.407899999999998
C      47.901749999999993     48.479199999999999     45.836100000000002
C      48.747649999999993     49.894900000000000     48.498100000000008
C      47.662649999999999     47.732399999999991     47.239100000000001
C      48.270250000000004     48.369099999999996     48.408400000000000
C      46.898650000000004     46.531100000000002     47.282600000000002
C      47.901150000000001     47.438299999999991     49.513600000000004
C      46.215949999999992     45.907199999999996     48.380800000000001
C      46.966250000000002     46.269199999999991     49.580199999999998
H      49.358750000000001     50.375999999999998     45.288400000000003
H      47.969149999999999     50.525399999999998     46.599199999999996
H      50.596149999999994     50.861499999999999     47.178899999999999
H      50.471350000000001     49.407299999999999     47.837900000000005
H      46.819549999999992     48.502999999999993     45.443600000000004
H      48.615349999999992     47.833599999999997     45.365699999999997
H      47.661149999999992     50.642699999999998     48.457999999999998
H      49.109650000000002     49.946300000000001     49.515599999999992
H      46.496049999999997     46.162100000000002     46.269700000000000
H      47.974050000000005     47.495899999999999     50.593699999999998
H      45.403850000000006     45.138500000000001     48.320300000000003
H      46.892150000000001     46.080499999999994     50.711599999999997
