6

C      48.084949999999992     47.535679999999999     47.650649999999992
C      47.888950000000001     48.836889999999997     47.993949999999998
H      49.053649999999998     46.929029999999997     47.827150000000003
H      47.467849999999999     46.639849999999996     47.295850000000002
H      48.541350000000001     49.352639999999994     48.704149999999998
H      46.946350000000002     49.360150000000004     47.803649999999990
