22

C      48.764649999999996     47.820799999999998     45.582094999999981
C      49.729450000000000     48.397500000000008     46.625109999999985
C      47.204750000000004     48.148700000000005     45.921847999999990
C      49.019549999999995     49.426900000000003     47.424179999999986
C      47.088849999999994     47.726500000000001     47.439179999999986
C      47.849350000000001     48.615000000000009     48.281859999999988
C      46.305750000000003     46.723399999999998     48.174559999999992
C      48.003349999999998     48.688500000000005     49.667059999999985
C      46.520849999999996     46.992800000000003     49.563479999999991
C      47.369650000000007     47.598100000000002     50.472959999999986
H      48.898250000000004     46.832500000000010     45.984443999999989
H      48.989450000000005     47.893600000000006     44.447700000000012
H      50.382649999999998     49.029899999999998     46.035607999999989
H      50.411649999999995     47.773700000000005     47.168279999999989
H      46.512550000000005     47.654800000000009     45.443018999999985
H      46.886949999999999     49.179600000000008     45.613337999999992
H      48.508449999999996     49.900400000000005     46.520379999999989
H      49.613550000000004     50.137799999999999     48.099799999999981
H      45.588350000000005     45.862200000000001     47.885119999999993
H      48.574449999999999     49.393900000000002     50.160209999999985
H      46.022549999999995     46.112099999999998     50.288649999999990
H      47.560150000000007     47.468000000000004     51.552299999999988
