5

C      48.182999999999993     47.891149999999989     48.238149999999990
H      48.921399999999998     48.802650000000000     48.010149999999996
H      48.821700000000000     47.197350000000000     48.829449999999994
H      47.858399999999996     47.555450000000000     47.170550000000006
H      47.078600000000002     47.909149999999997     48.708849999999998
