21

C      48.158799999999992     49.451799999999992     49.999349999999993
C      49.684200000000004     48.724699999999999     49.778649999999999
C      47.281400000000005     48.192599999999999     50.043149999999997
C      49.698099999999997     47.832300000000004     48.577350000000010
C      47.388199999999998     47.479699999999994     48.561850000000007
C      48.616799999999998     47.207300000000004     47.905150000000006
C      46.191600000000001     46.812399999999997     48.151949999999999
C      48.583200000000005     46.847399999999993     46.434449999999998
C      46.226100000000002     46.234099999999998     46.814350000000005
C      47.396699999999996     46.271199999999993     45.954350000000005
H      48.011400000000002     50.032399999999996     48.966250000000002
H      48.046599999999998     50.309399999999997     50.682250000000010
H      50.274100000000004     48.411599999999993     50.884550000000004
H      50.566900000000004     49.347099999999998     49.740450000000010
H      46.411999999999999     48.656300000000002     50.007649999999998
H      47.671199999999999     47.751400000000004     50.939750000000004
H      50.682699999999997     47.749299999999991     48.097850000000008
H      45.317300000000003     46.661900000000003     48.819650000000010
H      49.380800000000001     46.910899999999998     45.827849999999998
H      45.517700000000005     45.726399999999998     46.493350000000007
H      47.365200000000002     45.690600000000003     45.060249999999996
