22

C      50.554311999999996     48.001800000000003     48.421449999999993
C      49.646890000000027     49.439700000000002     48.377949999999998
C      49.872890000000027     46.990499999999997     47.398250000000004
C      48.599890000000016     48.796899999999994     49.409450000000007
C      48.433590000000009     46.874099999999999     47.685850000000002
C      47.727290000000011     47.761600000000001     48.621550000000013
C      47.647390000000001     46.153900000000007     46.717250000000007
C      46.287390000000030     47.962000000000003     48.602549999999994
C      46.147490000000005     46.282200000000003     46.653649999999999
C      45.648089999999996     47.239100000000008     47.532849999999996
H      51.216023000000007     47.631600000000006     49.311750000000004
H      51.361310000000003     48.359700000000004     47.657449999999997
H      50.308189999999996     50.317499999999995     48.611850000000004
H      49.118089999999995     49.764899999999997     47.513850000000005
H      49.834290000000024     47.596500000000006     46.234650000000002
H      50.400379400000006     45.965100000000007     47.424049999999994
H      49.263890000000018     48.134799999999998     50.110550000000003
H      47.939089999999993     49.467799999999997     49.857050000000001
H      48.098489999999998     45.682500000000005     45.939750000000004
H      46.121290000000016     48.726799999999997     49.405850000000001
H      45.442090000000022     45.815800000000010     45.889449999999997
H      44.638689999999997     47.238300000000010     47.077449999999999
