19

C      46.443549999999995     48.320194999999991     46.930199999999999
C      45.883150000000001     48.842394999999996     48.294699999999999
C      46.853250000000003     49.241195000000005     49.476000000000006
C      48.541750000000008     47.959065000000002     48.091600000000007
C      47.820150000000012     47.879375000000003     46.656799999999997
C      45.684650000000005     48.065555000000003     49.544599999999996
C      49.920750000000005     46.922435000000000     48.225100000000005
C      48.492350000000002     46.500034999999997     48.015899999999995
H      46.091150000000006     48.552795000000003     46.003099999999996
H      45.070650000000001     49.527694999999994     48.095099999999995
H      48.509050000000002     48.153705000000002     45.900399999999998
H      50.929349999999999     47.075614999999999     47.764599999999994
H      50.080749999999995     46.234285000000000     49.248799999999996
H      48.583349999999996     45.705905000000001     49.007799999999996
H      48.318350000000009     45.972535000000001     46.940300000000001
H      48.843350000000001     50.070994999999996     49.292499999999997
H      46.545149999999992     50.294094999999999     49.803199999999997
N      48.257149999999996     49.079695000000001     49.279599999999995
O      46.214050000000000     47.150235000000002     50.099600000000002
