22

C      50.700749999999992     48.101049999999994     48.165149999999997
C      50.065550000000002     46.666450000000012     47.675350000000002
C      49.477450000000005     48.348650000000006     49.220850000000006
C      48.658749999999998     46.660049999999998     46.797649999999997
C      48.053550000000001     48.801349999999999     48.631350000000005
C      47.782650000000004     47.850750000000005     47.510849999999998
C      47.117649999999998     49.669250000000005     49.338650000000008
C      46.351450000000000     47.702350000000010     47.614950000000000
C      45.676450000000003     49.477249999999998     49.319550000000000
C      45.360150000000004     48.523650000000004     48.267850000000003
H      50.725449999999995     48.930350000000004     47.391750000000002
H      51.679450000000003     47.909250000000000     48.785550000000008
H      50.077449999999999     45.951450000000008     48.589050000000007
H      50.805149999999998     46.116650000000007     46.906650000000006
H      49.914349999999999     49.180450000000008     49.789350000000006
H      49.314149999999998     47.550250000000005     50.187649999999998
H      48.675250000000005     47.300350000000009     45.812350000000002
H      47.998049999999999     45.650649999999999     46.653550000000003
H      47.343050000000005     50.349350000000001     50.125650000000000
H      45.804050000000004     46.767050000000012     47.116750000000003
H      44.740150000000000     49.976650000000006     49.670350000000006
H      44.320549999999997     48.262349999999998     48.078750000000007
