43

C      47.571849999999998     48.063149999999993     47.683784999999993
C      46.154849999999996     48.085349999999991     47.484684999999999
C      46.843549999999993     46.048749999999998     44.362745000000004
C      48.336349999999996     47.187550000000002     46.636885000000007
C      45.396550000000005     47.567750000000004     46.277505000000005
C      47.814149999999998     45.624150000000000     46.548484999999999
C      47.495149999999995     46.569450000000003     45.470215000000003
C      46.039450000000002     46.858149999999995     45.241955000000004
C      48.301850000000002     48.981250000000003     48.573785000000001
C      47.384150000000005     49.691549999999992     49.453685000000007
C      45.993049999999997     50.153750000000002     49.103985000000009
C      45.358049999999992     49.016249999999985     48.346784999999997
C      49.800349999999995     48.996049999999997     48.544685000000001
C      50.424349999999990     49.401749999999993     49.753485000000005
C      49.442949999999996     49.955149999999989     50.744285000000005
C      48.095450000000000     50.217249999999993     50.630184999999997
C      50.040349999999989     46.933549999999997     46.789385000000003
C      50.464349999999996     48.405249999999995     47.199584999999999
C      43.934150000000002     48.231949999999998     46.388885000000002
C      44.024749999999997     49.190349999999995     47.590785000000004
C      44.319350000000000     48.294549999999987     49.056184999999999
C      52.144649999999999     49.266249999999999     51.468585000000004
C      52.008049999999997     48.718750000000000     46.845185000000001
C      51.881550000000004     49.002349999999993     50.012285000000006
H      46.289649999999995     45.724549999999994     43.444715000000002
H      48.579449999999994     45.100449999999995     46.811985000000007
H      45.238150000000005     50.899550000000005     49.308584999999994
H      49.663049999999998     50.333150000000003     51.962485000000001
H      50.457650000000001     46.763149999999996     45.871695000000003
H      50.501850000000005     46.242149999999995     47.492384999999999
H      50.055049999999994     48.949849999999998     46.336785000000006
H      43.683149999999998     48.767049999999998     45.435785000000003
H      43.139250000000004     47.404250000000005     46.472985000000001
H      43.931849999999997     50.297249999999991     47.476585000000000
H      44.112449999999995     47.234549999999999     48.930085000000005
H      43.875550000000004     48.613950000000003     50.013885000000002
H      52.252749999999992     48.006450000000001     45.941055000000006
H      52.860749999999996     49.479249999999993     46.932185000000004
H      52.440649999999991     48.079349999999991     47.682785000000003
H      47.671549999999996     50.661449999999988     51.529285000000002
H      52.616649999999993     48.488849999999999     49.333185000000000
H      46.990349999999992     45.447850000000003     47.222485000000006
O      52.181349999999995     49.513149999999996     52.555284999999998
