22

C      46.524599999999992     49.261849999999995     48.041999999999994
C      45.968699999999998     47.897849999999998     47.483699999999999
C      48.064599999999992     49.561950000000003     48.777600000000007
C      47.291400000000003     46.697750000000006     47.219800000000006
C      49.009000000000000     48.344349999999999     48.441500000000005
C      48.673499999999997     47.167250000000003     47.666499999999999
C      50.015700000000002     47.794950000000007     49.334699999999998
C      48.981400000000001     48.374550000000006     47.047300000000007
C      50.478100000000005     46.461750000000002     48.984700000000004
C      49.593600000000002     46.060350000000007     47.952600000000004
H      45.865600000000001     49.857350000000004     48.607500000000002
H      46.218299999999999     49.772350000000010     47.080100000000002
H      44.896700000000003     47.850950000000005     47.124099999999999
H      45.455200000000005     47.754250000000006     48.322100000000006
H      47.859000000000002     49.874150000000007     49.814800000000005
H      48.738800000000005     50.493350000000000     48.757500000000007
H      47.178800000000003     46.368850000000002     46.106200000000001
H      47.026999999999994     45.789350000000006     47.945100000000004
H      50.371600000000001     48.476350000000004     49.893799999999999
H      49.709700000000005     48.515450000000008     46.135700000000000
H      51.103299999999997     45.820850000000000     49.674800000000005
H      49.587499999999999     45.506650000000000     47.183199999999999
