22

C      45.986399999999996     49.265849999999986     49.160609999999991
C      46.877600000000001     50.352050000000006     48.423180000000002
C      46.779700000000005     47.797349999999994     49.149850000000001
C      48.346200000000003     49.930850000000007     48.192220000000006
C      47.936300000000003     47.740549999999999     48.047710000000009
C      48.774200000000008     48.671949999999995     47.274400000000000
C      48.064000000000007     46.415750000000003     47.717399999999998
C      49.837699999999998     48.333749999999995     46.421400000000006
C      49.104399999999998     45.850449999999995     46.835590000000010
C      50.116000000000000     46.892650000000003     46.294390000000007
H      45.026499999999999     49.133949999999999     48.631870000000006
H      45.833500000000001     49.809449999999998     50.056810000000013
H      46.816699999999997     51.212850000000003     49.019780000000011
H      46.520600000000002     50.568849999999998     47.540320000000008
H      46.055000000000000     47.040049999999994     48.771140000000003
H      47.170599999999993     47.360950000000003     50.262709999999998
H      48.889499999999998     50.897549999999995     47.905450000000002
H      48.701799999999999     49.478250000000003     49.351460000000003
H      47.271900000000002     45.802650000000000     48.135260000000002
H      50.041499999999999     49.180549999999997     45.888919999999999
H      49.067300000000003     44.787149999999997     46.446470000000005
H      50.973500000000001     46.624549999999999     45.737290000000002
