6

C      48.032150000000001     47.716949999999983     47.517019999999988
C      47.764750000000006     47.942249999999994     48.776100000000000
H      47.304349999999999     47.733550000000001     46.590910000000001
H      49.049349999999990     47.440350000000002     47.410989999999998
H      46.950650000000010     48.559649999999998     48.939330000000005
H      48.662450000000007     47.820749999999997     49.409089999999999
