21

C      47.805754999999991     50.014499999999991     49.552556999999986
C      46.457864999999998     49.406800000000004     49.647686999999991
C      48.764015000000001     49.233000000000004     48.631616999999999
C      46.603384999999989     48.355100000000000     48.363876999999995
C      48.426344999999998     47.620200000000004     48.449806999999993
C      47.309134999999998     47.250700000000002     47.864806999999999
C      49.480834999999999     46.817100000000003     47.643896999999996
C      47.014524999999992     46.131999999999998     47.051396999999994
C      49.422674999999998     45.844900000000003     46.613036999999998
C      47.957524999999990     45.599299999999999     46.245546999999995
H      48.077945000000000     50.149599999999992     50.736067000000006
H      47.676334999999995     51.056899999999999     49.235226999999995
H      45.568095000000000     49.966900000000003     49.824346999999989
H      46.093514999999996     48.883499999999998     50.615186999999992
H      48.966344999999990     49.835999999999999     47.621666999999995
H      49.510794999999987     49.414500000000004     49.452126999999997
H      45.979504999999989     48.560800000000000     47.490496999999998
H      50.431905000000000     47.229300000000002     47.859106999999995
H      45.922474999999991     45.908200000000001     46.971676999999993
H      50.030805000000001     45.352699999999999     45.997564999999994
H      48.007684999999995     44.943100000000001     45.263932999999994
