22

C      49.243699999999997     45.929799999999993     48.500099999999989
C      48.304000000000002     46.155799999999999     47.253299999999996
C      48.625700000000009     46.086399999999998     49.810400000000001
C      47.234499999999997     46.977599999999995     49.558899999999994
C      47.105500000000006     47.923199999999994     48.527600000000007
C      47.766300000000001     47.641199999999998     47.294799999999995
C      46.381200000000007     49.150700000000001     49.027700000000010
C      47.438400000000001     48.557800000000000     46.169799999999995
C      46.812899999999999     50.187299999999993     47.951300000000003
C      46.846299999999999     49.797600000000003     46.531999999999996
H      50.294499999999999     45.965599999999995     48.464299999999994
H      49.676500000000004     44.800799999999995     48.217700000000008
H      48.800899999999999     46.117099999999994     46.240600000000001
H      47.652200000000008     45.392899999999997     47.411000000000001
H      49.567300000000003     46.106799999999993     50.706500000000005
H      47.827200000000005     45.230699999999999     50.019000000000005
H      46.892200000000003     47.396500000000003     50.577399999999997
H      46.507700000000000     45.925799999999995     49.681899999999999
H      45.705500000000001     49.438699999999997     49.784200000000013
H      47.966700000000003     48.359799999999993     45.293499999999995
H      46.798400000000001     51.199200000000005     48.396799999999999
H      46.485500000000002     50.505899999999997     45.804500000000004
