11

C      49.117699999999999     48.699899999999992     47.675199999999990
C      47.762300000000003     48.211799999999997     47.459499999999998
C      47.027500000000011     47.274400000000000     48.471200000000003
H      49.806800000000003     48.611099999999993     46.843299999999992
H      49.835400000000000     48.304599999999994     48.449599999999997
H      47.709499999999998     47.673400000000001     46.393599999999999
H      47.067900000000002     47.581100000000006     49.606400000000001
H      47.247000000000007     48.941000000000003     46.925699999999999
H      47.557700000000004     46.161400000000000     48.501699999999992
H      46.164600000000000     46.814700000000002     48.281699999999994
H      49.159399999999998     49.838600000000000     47.797999999999995
