22

C      49.334499999999998     48.308499999999988     46.898499999999991
C      49.981899999999996     49.363000000000000     47.852800000000002
C      47.916100000000000     48.571299999999994     46.110299999999995
C      48.834699999999998     49.230500000000006     49.123199999999997
C      46.969499999999996     48.180499999999995     47.358499999999992
C      47.517799999999994     48.396699999999996     48.619399999999999
C      46.094300000000004     46.996399999999994     47.502200000000002
C      46.898600000000002     48.019900000000007     49.886200000000002
C      45.611499999999992     46.468199999999996     48.701399999999992
C      45.678500000000000     47.245099999999994     49.984700000000004
H      50.388700000000000     47.723500000000001     46.055999999999997
H      49.100600000000000     47.386899999999997     47.429299999999998
H      49.999799999999993     50.456500000000005     47.431899999999999
H      51.033000000000001     49.111900000000006     48.090000000000003
H      47.932699999999997     49.736800000000002     46.140599999999992
H      47.558399999999992     48.127399999999994     45.020200000000003
H      48.622399999999999     50.243200000000002     49.559899999999999
H      49.468900000000005     48.841400000000007     49.883799999999994
H      45.829700000000003     46.521799999999999     46.610699999999994
H      47.358900000000006     48.372600000000006     50.748599999999996
H      44.966999999999999     45.543499999999995     48.734999999999999
H      45.420500000000004     46.895799999999994     50.979799999999997
