6

C      48.256099999999989     48.616099999999996     48.197799999999987
C      47.620599999999989     47.547300000000000     47.862799999999993
H      48.059999999999995     49.072800000000001     49.056700000000006
H      49.140999999999998     48.922899999999998     47.631199999999993
H      46.859000000000002     47.004100000000001     48.384199999999993
H      47.695699999999995     46.927199999999999     46.943299999999994
