22

C      50.513899999999985     48.102099999999993     49.047999999999995
C      49.137500000000003     48.420500000000018     49.836200000000005
C      49.981200000000001     47.184899999999999     47.792500000000004
C      47.977000000000004     49.077399999999997     48.945000000000007
C      48.678899999999999     47.418700000000001     47.242600000000003
C      47.678399999999996     48.487300000000005     47.626100000000008
C      47.976100000000002     46.720700000000008     46.228800000000007
C      46.469799999999992     48.923100000000005     47.009100000000004
C      46.614999999999995     46.922300000000007     45.707100000000004
C      45.700099999999992     48.054000000000002     46.022000000000006
H      51.001199999999997     47.224800000000002     49.517700000000005
H      50.861400000000003     49.111100000000008     48.739200000000004
H      49.269899999999993     49.339700000000008     50.565700000000007
H      48.654100000000000     47.636300000000006     50.778199999999998
H      50.779399999999995     46.781599999999997     47.049700000000001
H      50.061399999999992     46.228200000000001     48.566900000000004
H      47.049899999999994     49.105000000000018     49.548700000000011
H      47.719700000000003     50.126199999999997     48.923100000000005
H      48.729199999999992     45.873800000000003     45.844100000000005
H      45.918899999999994     49.912900000000008     47.157600000000002
H      46.117699999999999     46.087900000000005     45.221800000000002
H      44.998800000000003     48.663700000000006     45.391900000000007
