22

C      47.769499999999994     46.949399999999990     50.475449999999995
C      47.862800000000000     48.355899999999991     50.885150000000003
C      48.212899999999998     46.405499999999996     49.099250000000005
C      48.229800000000004     49.447699999999998     49.567749999999997
C      47.534500000000001     47.386499999999998     47.975950000000005
C      47.619999999999997     48.834799999999987     48.282950000000007
C      47.437900000000006     46.962599999999995     46.589750000000002
C      47.504200000000004     49.671800000000005     46.965750000000000
C      47.375999999999998     47.831699999999998     45.377350000000000
C      47.487599999999993     49.212499999999991     45.524549999999998
H      47.983299999999993     46.181699999999999     51.318050000000007
H      46.695600000000006     46.753799999999998     50.147849999999998
H      48.284200000000006     48.958799999999997     51.766950000000001
H      46.832799999999999     48.646900000000002     51.259049999999995
H      49.196599999999997     46.183399999999999     48.722749999999998
H      48.070199999999993     45.262299999999996     48.969650000000001
H      49.304399999999994     49.618199999999987     49.541950000000000
H      47.648599999999995     50.338499999999996     49.742449999999998
H      47.347100000000005     45.860699999999994     46.331850000000003
H      48.063799999999993     50.737700000000004     46.622549999999997
H      47.270100000000006     47.671299999999988     44.233049999999999
H      47.591599999999993     49.833999999999989     44.606950000000005
