22

C      49.635299999999994     47.844299999999990     46.587779999999988
C      50.055900000000001     48.259999999999998     48.353950000000012
C      47.820799999999998     49.540100000000002     46.689679999999996
C      48.597400000000000     48.862199999999994     49.121630000000010
C      48.297699999999999     47.892299999999999     46.725380000000001
C      47.633700000000005     48.724499999999999     47.957130000000006
C      47.576200000000000     46.717700000000001     46.391880000000000
C      46.469300000000004     48.164399999999993     48.533270000000002
C      46.178500000000000     46.483100000000000     46.599580000000003
C      45.861400000000003     47.034299999999995     47.913430000000005
H      49.895800000000008     46.915599999999998     46.191980000000001
H      49.831400000000002     48.628399999999999     45.937179999999998
H      50.639600000000002     47.494399999999999     48.585090000000008
H      50.932000000000002     49.080399999999997     48.462450000000004
H      47.193800000000003     49.536799999999992     45.803380000000004
H      48.375300000000003     50.470400000000005     46.826753500000009
H      48.554000000000002     48.699300000000001     50.207920000000001
H      48.923200000000001     50.018300000000004     49.112680000000012
H      48.044100000000000     45.840499999999999     45.792079999999999
H      46.146799999999999     48.273699999999998     49.617260000000016
H      45.664900000000003     45.529599999999995     46.387079999999997
H      45.067999999999998     46.413999999999994     48.504890000000017
