22

C      49.330749999999995     49.384549999999990     46.495449999999991
C      49.074950000000001     50.279550000000000     47.597549999999991
C      48.921549999999996     47.833250000000007     46.503049999999995
C      47.637749999999997     49.909549999999996     48.199649999999998
C      48.171049999999994     47.585450000000009     47.838850000000001
C      47.445650000000001     48.635850000000005     48.730950000000000
C      48.209350000000001     46.169249999999991     48.135249999999992
C      46.508250000000004     47.989050000000006     49.528549999999989
C      47.470150000000004     45.680750000000003     49.212749999999993
C      46.591449999999995     46.575850000000003     49.896149999999999
H      48.928150000000002     49.714150000000004     45.550249999999998
H      50.350049999999996     49.484449999999995     46.240249999999996
H      50.107649999999992     49.958449999999999     48.037949999999988
H      48.989949999999993     51.395650000000003     47.058349999999997
H      49.821549999999988     47.180750000000003     46.168549999999989
H      48.429949999999991     47.472049999999996     45.553449999999991
H      47.220749999999995     50.715750000000000     48.978149999999992
H      47.072249999999997     49.954149999999998     47.179549999999999
H      49.075149999999994     45.367549999999994     47.850449999999988
H      45.649950000000004     48.566350000000000     50.192649999999993
H      47.709149999999994     44.604349999999997     49.722949999999990
H      45.910049999999998     46.139650000000003     50.449750000000002
