105

C      47.906699999999987     46.731499999999997     42.598499999999994
C      48.671800000000005     46.578699999999998     41.360799999999998
C      51.843800000000002     46.355099999999993     45.670699999999997
C      52.596199999999996     45.970799999999997     44.305599999999998
C      48.529499999999999     46.736999999999995     44.003399999999999
C      50.200800000000001     46.269599999999997     41.402600000000007
C      50.409800000000004     46.626499999999993     45.366100000000003
C      52.178500000000000     45.904299999999992     42.862600000000000
C      50.021299999999997     46.509900000000002     43.981700000000004
C      50.748800000000003     46.172799999999995     42.701000000000008
C      46.433599999999998     47.008999999999986     42.477699999999999
C      45.778999999999996     46.913999999999987     41.145499999999998
C      46.729699999999994     46.734700000000004     39.896300000000004
C      48.063999999999993     46.863999999999990     40.159300000000002
C      52.430399999999992     46.608000000000004     47.027900000000002
C      53.829400000000007     46.107900000000001     47.209900000000005
C      54.231700000000004     45.351599999999991     46.047600000000003
C      53.796399999999991     45.319999999999993     44.638900000000007
C      45.492899999999992     46.947000000000003     43.629700000000000
C      44.050299999999993     47.054199999999994     43.204999999999998
C      43.390900000000002     47.146000000000001     41.910400000000003
C      44.396999999999991     46.994299999999996     40.820500000000003
C      46.034199999999998     47.162700000000001     44.901000000000010
C      47.510000000000005     47.191099999999992     45.030700000000010
C      48.067899999999995     47.215599999999995     46.363900000000001
C      49.545900000000003     47.094499999999996     46.543199999999999
C      51.611199999999997     46.972300000000004     48.181399999999996
C      50.214500000000001     47.236499999999992     47.807100000000005
C      51.340599999999995     46.098299999999995     40.421199999999999
C      50.779899999999998     46.479199999999992     39.166899999999998
C      49.035300000000007     46.731799999999993     38.954700000000003
C      51.867000000000004     45.226199999999992     39.126100000000001
C      47.151499999999999     46.035399999999996     55.530699999999996
C      47.152799999999999     45.638899999999992     56.984099999999998
C      47.361999999999995     45.660899999999998     54.256299999999996
C      47.696399999999997     49.436399999999992     50.900700000000001
C      48.178299999999993     48.787699999999987     49.507599999999996
C      44.523200000000003     47.909299999999988     51.681600000000003
C      45.485699999999994     46.781999999999996     52.176699999999997
C      42.938999999999993     49.331099999999992     48.146100000000004
C      43.556699999999992     48.112700000000004     47.399400000000000
C      43.654799999999994     47.560400000000001     50.620400000000004
C      46.442599999999999     46.024900000000002     51.157600000000002
C      42.271799999999999     47.997899999999987     50.339500000000001
C      43.070799999999991     46.904899999999984     49.554600000000008
C      43.996899999999997     48.948199999999986     52.695800000000006
C      44.587199999999996     48.467699999999994     53.958399999999997
C      45.554999999999993     47.207300000000004     53.524500000000003
C      46.346900000000005     46.678500000000000     54.668999999999997
C      42.554199999999994     50.360299999999995     46.980699999999999
C      42.898099999999999     50.503599999999992     45.621300000000005
C      44.301299999999998     48.579499999999996     46.232700000000008
C      44.573200000000000     49.074299999999994     47.760800000000003
C      43.217600000000004     50.125399999999999     53.099100000000007
C      43.228499999999997     50.718800000000002     54.437799999999996
C      43.629599999999996     50.064999999999998     55.510900000000007
C      44.530299999999997     48.927199999999999     55.344099999999997
C      47.271500000000003     46.787099999999995     50.506500000000003
C      43.894700000000000     50.526200000000003     56.861500000000007
C      44.045299999999997     49.680599999999998     44.988900000000001
H      52.700500000000005     45.785699999999991     42.007700000000000
H      46.359499999999997     47.032399999999996     38.996800000000007
H      54.173600000000008     45.975200000000001     48.165500000000009
H      55.219000000000008     44.627099999999999     46.403999999999996
H      54.465100000000007     44.712899999999991     43.928800000000010
H      43.583799999999997     46.587400000000002     43.983000000000004
H      42.295599999999993     47.089500000000001     41.892200000000003
H      44.227300000000000     46.784999999999997     39.876900000000006
H      47.639700000000005     47.209800000000001     47.367699999999999
H      52.084100000000007     47.308299999999988     49.100999999999999
H      49.782499999999999     47.417099999999991     48.929200000000009
H      52.466300000000004     46.253799999999998     40.582900000000002
H      48.902100000000004     47.392899999999983     38.058999999999997
H      51.109200000000001     47.595199999999991     39.219200000000001
H      48.637400000000000     45.906700000000001     38.433199999999999
H      51.314200000000000     44.382400000000004     39.167299999999997
H      52.832499999999996     45.458299999999994     38.731400000000001
H      44.163299999999992     45.923099999999991     48.034000000000006
H      46.330600000000004     44.607299999999995     56.933700000000002
H      47.112300000000005     46.445599999999999     57.704900000000009
H      47.819199999999995     44.736599999999996     53.892700000000005
H      46.715199999999996     49.813099999999991     50.610100000000003
H      47.000399999999999     49.105699999999999     51.579900000000009
H      48.417500000000004     50.277299999999997     51.076300000000003
H      47.716600000000000     49.266799999999989     48.576900000000009
H      49.193300000000008     49.074299999999994     49.234700000000004
H      41.476199999999992     47.527299999999997     50.888800000000003
H      46.095799999999997     44.981799999999993     50.833200000000005
H      41.833799999999997     51.135700000000000     47.442599999999999
H      44.894400000000005     50.065199999999990     44.468599999999995
H      45.073200000000000     48.810099999999991     48.665700000000001
H      42.590800000000002     50.107299999999995     52.206800000000001
H      42.783299999999997     51.617599999999996     54.546599999999998
H      45.003399999999999     48.425699999999992     56.122799999999998
H      43.209199999999996     51.465299999999985     57.100000000000009
H      43.427399999999992     50.073199999999986     57.941000000000003
H      44.915400000000005     50.562699999999992     56.948000000000008
H      42.619000000000000     51.289499999999990     45.071500000000000
H      43.703299999999999     49.233199999999997     43.948100000000011
H      48.550600000000003     45.393900000000002     57.000299999999996
H      40.780999999999992     49.456899999999990     49.040700000000001
N      41.956599999999995     49.102099999999993     49.278300000000002
N      43.329200000000000     46.664299999999997     48.138199999999998
O      45.208699999999993     47.476799999999997     45.839600000000004
O      48.130899999999997     47.276899999999998     49.721699999999998
