21

C      50.088399999999993     49.557319999999997     48.967622999999989
C      50.284100000000002     48.874610000000004     47.581522999999997
C      48.514000000000003     49.329680000000010     49.334422999999994
C      48.920000000000002     48.462800000000009     47.138322999999993
C      47.792700000000004     48.851430000000008     47.961922999999992
C      47.901200000000003     47.409607000000008     47.819623000000000
C      46.700899999999997     49.393000000000008     47.113222999999998
C      46.859600000000000     46.499520000000032     47.361222999999988
C      45.671100000000003     48.558370000000004     46.475923000000002
C      45.903700000000001     47.206089500000004     46.769622999999989
H      50.670700000000004     48.977640000000008     49.847762000000010
H      50.564700000000009     50.615080000000006     48.879623000000002
H      50.695200000000000     49.666750000000008     46.753723000000001
H      51.028500000000001     48.113282000000005     47.519123000000000
H      48.546700000000001     48.619440000000004     50.271477000000012
H      48.164400000000001     50.331450000000004     49.698297000000004
H      48.876199999999997     48.351400000000005     45.938322999999990
H      46.647199999999998     50.273930000000007     46.904922999999989
H      46.688000000000002     45.384919999999994     47.288922999999990
H      44.971499999999999     48.821940000000005     45.728522999999988
H      45.341500000000003     46.528720000000000     46.046022999999998
