22

C      47.842643499999994     45.903249999999986     49.831649999999989
C      47.778133499999996     47.290050000000008     50.291849999999997
C      48.023003500000002     45.902450000000002     48.158449999999995
C      47.242733500000000     48.437250000000006     49.586449999999999
C      48.123413499999998     47.406450000000007     47.530850000000001
C      47.720773500000007     48.704449999999994     48.069350000000000
C      48.843053499999996     47.712650000000011     46.329149999999998
C      47.653613500000006     49.917349999999999     47.430650000000000
C      48.964523500000013     48.882450000000006     45.413950000000000
C      48.025913500000001     49.947950000000006     45.980350000000001
H      47.001683499999999     45.364949999999993     49.905649999999994
H      48.419083499999999     45.803650000000005     50.986050000000006
H      48.871693500000006     47.866950000000003     49.975049999999996
H      48.050233500000004     47.449250000000006     51.296750000000003
H      48.734983499999998     45.149249999999995     47.794550000000001
H      47.026223500000000     45.734750000000005     47.810849999999995
H      46.128946499999998     48.229749999999996     49.507649999999998
H      47.465723499999996     49.208349999999996     50.414149999999992
H      49.300683500000005     46.584050000000005     46.412649999999999
H      47.019903499999998     50.810950000000005     47.662149999999997
H      49.871053500000002     49.022250000000000     44.703249999999997
H      48.019973500000006     50.850750000000005     45.312550000000002
