12

C      48.807700000000004     47.117299999999986     49.399849999999986
C      47.854200000000006     46.922599999999996     48.114950000000000
C      47.534800000000004     47.882500000000000     48.936550000000004
C      46.884600000000006     47.928199999999997     47.644950000000001
C      46.858300000000000     49.476800000000004     47.437050000000006
H      49.259600000000006     46.036700000000003     49.789449999999995
H      47.672700000000006     45.985099999999996     47.779450000000004
H      46.993300000000005     50.014900000000004     46.210550000000005
H      49.839399999999998     47.734900000000003     49.154050000000005
H      47.064599999999999     48.662900000000000     49.505649999999996
H      46.160600000000002     49.858399999999996     48.214350000000003
H      47.830200000000005     49.677199999999992     47.687649999999998
