44

C      50.949453249999991     48.785249999999984     49.960249999999995
C      51.194853249999994     47.867149999999995     51.222149999999999
C      49.533753249999990     49.364049999999992     50.085949999999997
C      50.112953249999990     46.881850000000000     51.503850000000000
C      48.554153249999985     48.195449999999994     50.160449999999997
C      48.608253249999990     47.120949999999993     51.021650000000001
C      47.270153249999993     46.940049999999999     48.358350000000002
C      47.623153249999987     46.123049999999992     51.356549999999999
C      47.266153249999988     48.352649999999997     49.278250000000000
C      46.429553249999998     46.217249999999993     50.551149999999993
C      44.439553249999989     48.511150000000001     44.371350000000000
C      45.643553249999997     49.480750000000000     44.467750000000002
C      45.102853249999995     47.030850000000001     44.582549999999998
C      46.095353249999988     49.411649999999995     46.056649999999998
C      45.316053249999996     46.693749999999994     46.125450000000001
C      45.906353249999995     47.938350000000000     46.657350000000001
C      46.936253249999993     46.973149999999990     46.577249999999999
C      44.607653249999984     47.634249999999994     47.269449999999999
C      46.319553249999984     47.141249999999999     49.425649999999997
C      44.746553249999991     47.343049999999991     48.965150000000001
H      51.914753249999990     49.407550000000001     49.938649999999996
H      50.953353249999992     47.987649999999988     49.068750000000001
H      51.316253249999988     48.513349999999988     52.181650000000005
H      52.324046750000008     47.528949999999995     51.179650000000002
H      49.112653249999994     50.008049999999997     49.220050000000001
H      49.439553249999989     49.922749999999994     51.019350000000003
H      50.342253249999985     46.136550000000000     50.717149999999997
H      50.398553249999992     46.533850000000001     52.483750000000001
H      47.984853249999986     46.020749999999992     48.766649999999998
H      47.922153249999994     45.472749999999991     52.324749999999995
H      46.879353249999994     49.329449999999994     48.871350000000000
H      45.823553249999989     45.403250000000000     50.586950000000002
H      43.820253249999993     48.227049999999991     43.516249999999999
H      43.675953249999992     48.965249999999997     45.031549999999996
H      45.189653249999992     50.596750000000000     44.343649999999997
H      46.410753249999985     49.344649999999987     43.660550000000001
H      44.793653249999991     46.253349999999998     43.896250000000002
H      46.075253249999989     47.285649999999990     44.500549999999997
H      45.588653249999993     50.324949999999987     46.463149999999999
H      47.120453249999997     49.786949999999990     46.189549999999997
H      47.701153249999990     47.488249999999994     46.043149999999997
H      43.767453249999988     48.268349999999998     47.014350000000000
H      44.212853249999995     48.168250000000000     49.423249999999996
H      44.437853249999989     46.397449999999992     49.421050000000001
