5

C      48.005999999999986     48.038899999999998     48.022799999999989
H      47.853399999999993     47.307200000000002     47.256699999999995
H      47.240499999999997     48.692799999999998     48.425800000000010
H      48.590699999999998     48.612299999999998     47.399200000000008
H      48.759500000000003     47.651699999999998     48.743300000000005
