52

C      46.389899999999983     46.071599999999989     50.289399999999993
C      49.640099999999997     47.981300000000005     46.807100000000005
C      50.564599999999992     51.724999999999994     43.718500000000006
C      49.449999999999996     51.423400000000001     44.652100000000004
C      46.365800000000000     48.282100000000000     49.187200000000004
C      47.493899999999989     49.610200000000006     47.100999999999999
C      47.720700000000001     47.822400000000002     48.717699999999994
C      48.394399999999997     48.497100000000003     47.473500000000001
C      49.380199999999995     45.873000000000005     48.108099999999993
C      49.998999999999988     46.584699999999998     47.062899999999999
C      45.754999999999988     45.041100000000000     51.211500000000001
C      47.557399999999994     45.438100000000006     49.672399999999996
C      46.504899999999999     43.824100000000001     51.514799999999994
C      47.777299999999990     43.399600000000007     51.141199999999998
C      48.224999999999987     44.157799999999995     49.962800000000001
C      49.392299999999999     43.329099999999997     49.282499999999999
C      49.967199999999998     44.459500000000006     48.077200000000005
C      44.283699999999989     47.830300000000008     50.408500000000004
C      46.407499999999992     49.549700000000001     48.239000000000004
C      51.196899999999992     49.936599999999999     46.571200000000005
C      49.071799999999989     50.112200000000001     45.171400000000006
C      49.503099999999996     43.220299999999995     47.202799999999996
C      48.616599999999998     52.760099999999994     46.651300000000006
C      44.353599999999993     45.289299999999997     51.888499999999993
C      45.618199999999995     47.300600000000003     49.956400000000002
C      50.049599999999991     49.119100000000003     45.896299999999997
C      48.239999999999988     46.368899999999996     48.767399999999995
C      47.729299999999988     50.535500000000013     46.027100000000004
C      48.329099999999990     51.730300000000000     45.513300000000001
H      50.488699999999987     48.667900000000003     45.082099999999997
H      50.917499999999997     46.230999999999995     46.460800000000006
H      45.770099999999992     43.491000000000000     52.333100000000002
H      48.045399999999994     42.419100000000000     51.559699999999992
H      50.068700000000000     42.664100000000005     49.815299999999993
H      48.818700000000000     42.516000000000005     48.763599999999997
H      51.108299999999993     44.560100000000006     48.101699999999994
H      46.453899999999997     50.534999999999997     48.657899999999998
H      45.419899999999991     49.662100000000009     47.574799999999996
H      52.152999999999999     49.234099999999998     46.798999999999992
H      50.780600000000000     50.730800000000002     47.400800000000004
H      51.647699999999993     50.600200000000001     45.901399999999995
H      48.272699999999993     43.369799999999998     47.094700000000003
H      49.884099999999997     43.288300000000007     46.200100000000006
H      50.240099999999991     42.300600000000003     47.548000000000002
H      47.802499999999988     52.853099999999998     47.525000000000006
H      49.200899999999997     52.344900000000010     47.384799999999998
H      48.951099999999990     53.699399999999997     46.356499999999997
H      44.309999999999995     46.307299999999998     51.884699999999995
H      44.345199999999998     45.013500000000008     53.004999999999995
H      43.847000000000001     44.445700000000002     51.337800000000001
O      43.933999999999990     48.872400000000013     50.215000000000003
O      51.379999999999988     52.066300000000012     42.995000000000005
