22

C      47.363699999999994     46.001799999999989     46.301299999999991
C      48.528100000000002     46.936399999999999     45.665299999999995
C      47.241799999999998     46.129799999999996     47.893299999999996
C      48.264800000000001     48.407599999999995     46.274200000000000
C      47.958000000000006     47.386999999999993     48.581600000000002
C      48.274999999999999     48.600400000000000     47.696299999999994
C      47.723199999999999     47.770899999999990     49.949799999999996
C      48.759999999999998     49.859500000000004     48.267600000000002
C      48.108899999999998     49.041799999999988     50.429400000000001
C      48.754899999999999     50.075899999999997     49.729099999999988
H      47.556399999999989     44.996299999999998     46.142899999999997
H      46.427199999999999     46.365099999999991     45.904299999999999
H      49.417000000000009     46.492599999999989     46.089999999999996
H      48.760899999999999     46.847199999999994     44.676299999999998
H      46.392099999999999     45.635599999999997     48.524499999999989
H      47.700600000000001     45.131399999999992     48.284399999999991
H      49.076600000000006     48.926299999999991     45.751599999999996
H      47.616799999999991     49.173799999999993     46.028599999999997
H      47.213600000000000     47.219599999999993     50.698999999999998
H      49.607900000000001     50.461899999999993     47.557299999999998
H      47.868400000000001     49.573100000000004     51.323700000000002
H      49.155600000000000     51.003700000000002     50.133600000000001
