22

C      47.154399999999988     49.843449999999990     49.103499999999997
C      47.474499999999992     50.234650000000009     47.594500000000004
C      47.684799999999996     48.440550000000009     49.781900000000000
C      47.350600000000000     49.171550000000003     46.533399999999993
C      48.158500000000004     47.533050000000010     48.732899999999994
C      47.971699999999998     47.852650000000004     47.358799999999995
C      48.657799999999995     46.138550000000002     49.318199999999997
C      48.265099999999990     46.810150000000000     46.408899999999996
C      49.194999999999993     45.491350000000004     48.178000000000004
C      48.742199999999997     45.590049999999998     46.717499999999994
H      46.144199999999998     49.819250000000004     48.785599999999995
H      46.951499999999996     50.698650000000008     49.664700000000003
H      47.275999999999996     51.229350000000004     47.339300000000001
H      48.562599999999989     50.377050000000004     47.735099999999996
H      48.190399999999997     48.492350000000009     50.620100000000001
H      46.862199999999994     48.030350000000006     50.330700000000000
H      46.318199999999990     49.097150000000006     46.083300000000001
H      47.966699999999996     49.348350000000003     45.690099999999994
H      48.645299999999992     45.908650000000002     50.315899999999992
H      48.097799999999992     47.220250000000000     45.379899999999999
H      49.855800000000002     44.786250000000003     48.236600000000003
H      48.818699999999993     44.770649999999996     45.911600000000000
