68

C      52.853649999999988     46.456849999999989     51.603799999999993
C      53.444950000000006     47.538750000000000     50.785299999999992
C      46.684250000000006     49.754550000000002     47.586900000000000
C      50.075749999999999     51.034650000000006     47.804299999999998
C      51.465850000000003     46.316350000000007     51.968099999999993
C      45.697649999999996     48.726450000000007     47.557999999999993
C      48.726550000000003     50.766349999999996     47.564999999999998
C      47.155749999999998     47.098250000000000     49.659899999999993
C      52.590649999999997     48.337349999999994     49.968900000000005
C      50.826650000000001     50.039149999999999     48.547499999999999
C      49.077150000000003     47.372650000000000     51.147199999999998
C      47.952849999999998     49.687350000000002     48.227900000000005
C      50.613649999999993     47.282850000000003     51.207599999999999
C      48.308250000000001     47.724849999999996     50.026499999999999
C      51.138049999999993     48.241149999999998     50.217600000000004
C      50.257850000000005     49.053350000000002     49.448200000000000
C      48.776949999999999     48.776450000000004     49.122500000000002
C      53.214350000000010     49.337550000000000     49.098799999999997
C      52.267650000000003     50.314950000000003     48.613299999999995
C      54.030749999999998     45.650050000000000     51.890399999999985
C      55.506750000000011     47.653449999999999     49.360100000000003
C      54.808250000000015     47.281849999999999     50.566999999999993
C      55.254449999999991     46.112249999999996     51.271699999999996
C      48.911150000000006     48.548750000000005     52.244000000000000
C      48.669449999999998     45.879250000000006     51.426400000000001
C      43.719750000000005     46.101549999999996     43.987200000000001
C      44.868150000000000     45.129350000000002     44.077699999999993
C      43.801550000000006     47.542750000000005     44.447800000000001
C      41.995050000000006     47.649049999999995     48.319099999999992
C      42.775049999999993     47.732250000000001     45.639600000000002
C      42.424149999999997     48.256850000000007     46.963700000000003
C      43.213250000000002     48.935949999999998     47.948200000000000
C      41.193650000000005     49.156749999999995     46.683999999999997
C      41.612250000000003     48.093150000000001     44.861499999999992
C      40.541849999999997     48.792149999999999     45.453999999999994
C      45.289550000000006     47.363650000000000     48.018000000000001
C      44.564949999999996     48.442050000000002     48.549499999999995
H      46.669150000000002     50.507050000000000     46.867599999999996
H      50.770949999999999     51.836250000000000     47.306500000000000
H      51.119950000000003     45.286149999999999     52.377199999999988
H      48.131050000000002     51.541050000000006     46.889399999999995
H      54.196850000000012     49.508149999999993     48.899100000000004
H      52.659850000000006     50.900950000000002     47.912999999999997
H      56.307950000000005     45.896949999999997     51.609399999999994
H      47.875749999999996     48.323450000000001     53.010800000000003
H      48.541749999999993     49.291750000000000     51.706499999999991
H      49.655050000000003     48.634149999999998     52.944999999999993
H      48.887550000000005     45.302450000000000     50.554000000000002
H      49.129649999999998     45.549550000000004     52.389099999999999
H      47.578050000000005     45.568050000000007     51.897199999999998
H      43.077050000000000     46.182750000000006     42.989199999999997
H      42.791150000000002     45.490450000000003     44.339299999999994
H      45.832149999999999     45.431549999999994     43.477099999999993
H      45.343950000000007     44.930650000000000     45.104900000000001
H      44.962750000000000     47.753449999999994     44.884799999999998
H      43.867050000000006     48.320649999999993     43.601900000000001
H      42.302449999999993     46.599449999999997     48.450999999999993
H      40.952650000000006     47.984749999999998     48.280599999999993
H      42.993350000000007     49.925950000000007     48.297200000000004
H      40.695350000000005     49.821149999999996     47.471199999999996
H      41.885549999999995     47.905549999999998     43.700000000000003
H      39.692049999999995     49.186349999999997     44.872299999999996
H      44.498050000000006     44.163750000000000     43.787099999999995
H      44.820449999999994     46.410649999999997     47.310599999999994
H      44.579849999999993     47.898450000000004     49.619299999999996
O      53.946749999999994     44.628450000000001     52.506699999999995
O      46.284549999999996     46.518049999999995     49.120699999999999
O      56.044850000000011     48.194849999999995     48.547499999999999
