22

C      48.566999999999993     50.096799999999995     49.206849999999989
C      48.882600000000004     50.377899999999997     47.752249999999997
C      47.310600000000001     49.035200000000003     49.725649999999995
C      48.281799999999997     49.519199999999998     46.667549999999999
C      47.047399999999996     48.122500000000002     48.627450000000003
C      47.685299999999998     48.200299999999999     47.304849999999995
C      46.434999999999995     46.938800000000001     49.040550000000003
C      47.874499999999998     47.094399999999993     46.451249999999995
C      46.664699999999996     45.625299999999996     48.329550000000005
C      47.562899999999999     45.752099999999999     47.091850000000001
H      47.993600000000001     51.060199999999995     49.668950000000002
H      49.302099999999996     50.400000000000006     49.944250000000004
H      49.974100000000000     50.378199999999993     47.537749999999996
H      48.195499999999996     51.462900000000005     47.498349999999995
H      46.433699999999995     49.758799999999994     49.837949999999999
H      47.814699999999995     48.531700000000001     50.589549999999996
H      47.389399999999995     49.842500000000001     45.919950000000007
H      48.780699999999996     49.445300000000003     45.663649999999997
H      46.025900000000000     46.525499999999994     50.177749999999996
H      48.331099999999999     47.106200000000001     45.410450000000004
H      46.991699999999994     44.543199999999999     48.590750000000007
H      47.739999999999995     44.537099999999995     46.919950000000007
