56

C      50.028839999999988     50.239199999999997     47.881900000000002
C      50.464716000000003     50.038499999999999     49.355200000000004
C      46.410739999999997     46.741900000000001     48.426300000000005
C      46.932340000000003     46.596600000000009     49.812400000000004
C      49.295439999999992     49.287000000000006     47.289200000000001
C      49.757539999999999     49.007000000000005     50.157400000000003
C      47.242740000000005     47.701200000000000     47.814100000000003
C      48.018539999999994     47.353400000000008     50.536800000000007
C      48.429939999999995     48.542100000000005     48.145299999999999
C      48.676740000000002     48.213999999999999     49.581499999999998
C      51.117980000000003     51.223500000000001     47.456200000000003
C      51.369109999999999     52.472300000000004     48.213900000000002
C      51.493180000000009     52.433999999999997     49.659399999999998
C      51.223800000000004     51.076300000000003     50.039900000000010
C      45.205139999999993     45.845600000000005     47.928900000000006
C      45.804639999999999     44.303399999999996     49.829200000000007
C      45.458840000000002     44.230699999999999     48.350700000000010
C      46.495240000000003     45.421099999999996     50.561900000000001
C      51.182260000000007     51.189799999999991     45.958500000000008
C      52.151860000000006     53.654499999999999     46.065000000000005
C      51.913180000000004     53.714900000000000     47.519700000000007
C      51.681740000000012     52.431699999999992     45.427700000000009
C      49.177039999999998     49.219899999999996     45.856900000000003
C      50.454323000000009     50.121099999999998     45.066899999999997
C      45.206939999999996     43.184600000000003     49.268700000000003
C      51.550270000000005     50.868000000000009     51.544300000000000
C      51.236650000000004     48.863200000000006     44.439000000000000
C      47.964340000000000     50.258899999999997     45.927799999999998
C      47.525939999999999     50.680700000000002     44.394600000000004
C      48.804039999999993     47.963600000000000     45.247199999999999
C      44.490540000000003     42.508400000000009     48.396099999999997
H      49.952840000000002     48.544100000000000     51.175400000000003
H      46.544639999999994     48.094700000000003     47.130299999999998
H      48.111240000000002     47.372399999999999     51.709300000000006
H      52.145810000000004     53.094200000000001     50.292800000000007
H      44.635339999999992     46.112499999999997     47.110300000000002
H      47.075640000000000     45.171900000000008     51.502299999999998
H      52.414510000000000     54.404199999999989     45.291600000000010
H      52.353220000000015     54.588300000000004     48.087700000000005
H      51.765230000000003     52.188200000000009     44.299600000000005
H      49.864039999999996     50.524799999999999     44.139600000000009
H      50.937973000000007     47.830700000000007     44.922400000000003
H      51.286340000000017     49.065200000000004     43.362800000000000
H      52.426260000000006     48.931600000000003     44.501700000000007
H      47.052839999999996     49.733199999999997     46.394600000000004
H      48.305839999999996     51.122000000000000     46.460100000000004
H      47.470539999999993     49.864199999999997     43.645000000000003
H      46.626640000000002     51.540199999999999     44.293100000000003
H      48.197139999999997     51.587699999999998     44.211500000000008
H      48.842139999999993     47.151899999999998     45.926000000000009
H      49.605240000000002     47.559700000000007     44.746200000000009
H      47.540240000000004     47.926699999999997     45.131800000000005
H      43.573739999999994     42.657700000000006     49.063200000000002
H      44.560740000000003     41.411699999999996     48.341700000000010
H      44.665240000000004     46.040599999999998     48.829600000000006
O      51.607930000000003     50.828199999999995     52.637200000000000
