22

C      45.798449999999995     46.962649999999989     47.124729999999985
C      47.107450000000000     46.210049999999995     46.502629999999996
C      45.843350000000001     48.157550000000001     48.081429999999997
C      48.221550000000008     47.277149999999992     46.135029999999986
C      47.292050000000003     48.800449999999998     48.239329999999995
C      48.403649999999999     48.057749999999999     47.541729999999987
C      47.611249999999998     49.803150000000002     49.228269999999995
C      49.611950000000000     48.519350000000003     47.942029999999988
C      48.934449999999998     50.046549999999996     49.805880000000002
C      50.008150000000001     49.389049999999997     48.985112000000001
H      45.339950000000002     46.028449999999992     47.794029999999992
H      45.018450000000001     47.182649999999995     46.280129999999986
H      46.924750000000003     45.873949999999994     45.513629999999992
H      47.437250000000006     45.402450000000002     47.090729999999994
H      45.350850000000001     49.076449999999994     47.862729999999985
H      45.385950000000001     47.730149999999995     48.932903999999994
H      47.893349999999998     47.924149999999997     45.172429999999991
H      49.321950000000001     46.952050000000000     46.502529999999993
H      46.789749999999998     50.275649999999999     49.869609999999994
H      50.350250000000003     48.112749999999991     47.203929999999986
H      49.252150000000000     50.597549999999998     50.827570000000009
H      50.981549999999999     49.287750000000003     49.319044000000005
