6

C      48.512549999999990     47.708749999999995     47.933099999999989
C      47.024250000000009     47.611449999999991     47.718399999999995
H      48.589050000000000     48.033749999999998     49.179000000000002
H      49.630650000000003     47.872149999999991     47.605899999999998
H      46.653050000000007     47.455849999999998     46.820999999999998
H      46.369349999999997     48.544150000000002     48.038200000000003
