100

C      44.363849999999992     43.737794999999984     47.979149999999990
C      51.204549999999998     53.053355000000010     43.279949999999999
C      52.048150000000007     52.986715000000004     44.781849999999991
C      49.294849999999997     50.170575000000014     44.351349999999996
C      48.714550000000003     48.701335000000000     44.662549999999996
C      51.243449999999996     49.530235000000005     46.843349999999987
C      48.331350000000000     50.221755000000002     45.263049999999993
C      49.985749999999996     47.915565000000008     45.079349999999991
C      50.466350000000006     49.160955000000016     48.051649999999995
C      51.042550000000006     48.637265000000006     45.647849999999991
C      49.886750000000006     50.807765000000003     43.080749999999995
C      49.634749999999997     51.154894999999996     45.408149999999992
C      52.143950000000004     51.511555000000001     45.343149999999994
C      51.065449999999998     50.873945000000006     46.401149999999987
C      49.922349999999994     50.114435000000007     41.968149999999994
C      46.845050000000001     50.503895000000000     44.803550000000001
C      46.662450000000007     49.498815000000008     43.602049999999991
C      47.540049999999994     48.333565000000007     43.572249999999997
C      49.957949999999997     52.366185000000016     42.741050000000001
C      50.089050000000000     46.312785000000005     45.234249999999989
C      44.815950000000001     49.282695000000004     50.409449999999993
C      47.728250000000003     45.268779000000009     49.294349999999994
C      45.065349999999995     45.146234000000007     47.898149999999987
C      46.501649999999998     45.086033999999998     48.376649999999998
C      46.280649999999994     45.460685000000012     47.075249999999997
C      44.314149999999998     46.215495000000004     48.501949999999994
C      43.937150000000003     48.575495000000004     49.682149999999993
C      44.464550000000003     47.627445000000002     48.585249999999988
C      51.079350000000005     48.303095000000006     44.124249999999989
C      51.718549999999993     46.228825000000008     50.057849999999988
C      50.218450000000004     47.715945000000005     48.379049999999992
C      50.508049999999997     47.217305000000003     49.979349999999997
C      48.877650000000003     47.205755000000003     48.220849999999999
C      50.945049999999995     48.573715000000007     49.360349999999997
C      48.185450000000003     46.665045000000006     49.391249999999985
C      49.075050000000005     46.779215000000008     50.700749999999985
C      45.260949999999994     46.314845000000005     53.058849999999993
C      44.135750000000002     45.240526000000003     52.674649999999986
C      46.043250000000000     45.227134000000007     54.016349999999989
C      49.382350000000002     45.517340000000004     51.605849999999990
C      47.022450000000006     44.503495000000001     53.201149999999998
C      48.420249999999996     44.853526000000002     52.575549999999993
C      46.644949999999994     43.231394999999992     52.803249999999991
C      48.332149999999999     44.617839243000006     53.933349999999990
C      44.309849999999997     43.798495000000003     52.686449999999994
C      45.267849999999996     42.809595000000002     52.588649999999987
H      44.221850000000003     43.309294999999992     49.183249999999987
H      43.341949999999997     43.838994999999997     47.713549999999998
H      44.659649999999999     42.894194999999996     47.263449999999992
H      52.031049999999993     47.663435000000007     43.943849999999998
H      48.907550000000001     44.531395000000003     44.766549999999995
H      51.474549999999994     45.251578000000002     49.481049999999996
H      51.854950000000002     52.610335000000006     42.599249999999998
H      51.051050000000004     54.170105000000007     42.944949999999992
H      51.382750000000001     53.812385000000006     45.392349999999993
H      52.770049999999998     53.816595000000007     44.816049999999990
H      52.317350000000005     50.976765000000000     44.282849999999996
H      49.315749999999994     52.305215000000004     45.348149999999990
H      53.173150000000007     51.133675000000011     45.707549999999998
H      51.262249999999995     51.656985000000006     47.196549999999988
H      52.237750000000005     49.625985000000000     47.334549999999993
H      50.092650000000006     50.578915000000002     40.960650000000001
H      49.486850000000004     49.016955000000010     41.888549999999995
H      45.823650000000001     50.482625000000013     45.405449999999988
H      47.163550000000001     51.595045000000013     44.274249999999995
H      46.555850000000007     49.941865000000007     42.650149999999996
H      45.691649999999996     48.996534999999994     43.830849999999998
H      47.876149999999996     48.241865000000004     42.605750000000000
H      47.327650000000006     47.293405000000007     43.997050000000002
H      51.073350000000005     46.148035000000007     45.528049999999993
H      46.014150000000001     49.199835000000007     50.439849999999993
H      44.529550000000000     49.990835000000004     51.255849999999995
H      48.589950000000002     44.527594999999991     48.999349999999993
H      47.697850000000003     44.858612000000008     50.265749999999997
H      46.089050000000000     45.507647000000006     45.968149999999994
H      43.537649999999999     45.762905000000003     49.255249999999990
H      42.826849999999993     48.635805000000005     49.774949999999990
H      45.393249999999995     48.046025000000007     48.313449999999989
H      51.513149999999996     49.192215000000004     43.620049999999992
H      52.566950000000006     46.460205000000002     49.635249999999985
H      52.262150000000005     45.597547000000006     50.840249999999997
H      48.377150000000000     47.528725000000009     47.374949999999998
H      51.979849999999999     48.688215000000000     49.431649999999991
H      47.320750000000004     47.386454999999998     49.489249999999998
H      48.750450000000001     47.558375000000012     51.295049999999989
H      50.032150000000001     46.039474999999996     46.347449999999995
H      45.914950000000005     46.891655000000014     52.163749999999993
H      44.744550000000004     47.038145000000007     53.598149999999990
H      43.294950000000000     45.696885000000009     53.299549999999996
H      43.611549999999994     45.508563000000002     51.748449999999991
H      45.168750000000003     44.472994999999997     54.733949999999993
H      46.606150000000000     45.756995000000003     54.615949999999998
H      50.638949999999994     45.694385000000011     51.854649999999992
H      49.640950000000004     44.710983499999998     50.925249999999991
H      47.351249999999993     42.667694999999995     53.111249999999998
H      48.435550000000006     44.810643999999996     55.039349999999999
H      43.261550000000000     43.658895000000001     52.368149999999986
H      45.309950000000001     41.829894999999993     52.245449999999991
O      49.023049999999998     52.892345000000006     42.219049999999996
O      49.313649999999996     45.434638000000007     44.419449999999998
