5

C      47.882549999999988     48.252849999999995     47.865149999999986
H      47.461050000000000     47.203450000000004     48.280749999999991
H      48.833050000000000     47.994749999999996     47.479549999999996
H      47.966249999999988     48.796549999999996     48.880350000000000
H      47.166950000000000     48.622249999999994     47.119650000000000
