10

H      48.785799999999995     48.201999999999998     46.144089999999991
H      49.099199999999996     47.341899999999995     50.114200000000004
H      47.144199999999998     49.030699999999996     45.885799999999996
H      48.476299999999995     49.746300000000005     47.518929999999990
H      47.283999999999992     47.959599999999995     47.437800000000003
H      47.363699999999994     47.554800000000000     49.307129999999994
H      47.455100000000002     46.253699999999995     47.790499999999994
N      48.116399999999999     48.921000000000006     46.555569999999996
O      46.900800000000004     47.023200000000003     48.267219999999995
O      48.440699999999993     46.696200000000005     49.727749999999993
