22

C      48.707349999999998     46.467399999999991     46.382984999999991
C      47.545249999999996     45.777499999999989     47.018374999999999
C      49.471850000000003     47.044499999999999     48.797864999999994
C      46.840350000000001     46.582099999999997     48.308534999999999
C      48.766249999999999     47.776100000000000     47.411574999999992
C      48.072150000000008     47.489599999999996     48.795094999999996
C      47.807150000000007     48.437799999999996     49.840984999999996
C      48.483450000000005     49.227800000000002     47.007124999999995
C      48.130449999999996     49.823599999999999     49.429784999999995
C      48.284350000000003     50.206099999999992     48.074274999999993
H      49.925150000000002     46.159599999999998     46.666114999999998
H      48.545550000000006     46.889600000000002     45.421884999999996
H      46.673749999999998     45.849699999999999     46.322994999999999
H      47.790050000000008     44.783000000000001     47.330324999999995
H      50.011849999999995     47.699299999999994     49.418365000000001
H      49.439350000000005     46.022700000000000     49.218184999999998
H      45.988150000000005     47.190599999999989     47.921904999999988
H      46.284850000000006     45.923299999999998     49.060674999999996
H      46.926450000000003     48.062100000000001     50.578115000000004
H      48.312849999999997     49.591999999999999     46.071784999999998
H      47.913750000000007     50.362899999999996     50.227014999999994
H      48.086449999999999     51.216999999999999     47.721654999999991
