13

C      47.003149999999991     46.327544999999986     50.149849999999994
C      47.569050000000004     48.601554999999998     48.013750000000002
C      48.410150000000002     48.417054999999998     49.165550000000003
C      47.432050000000004     49.507054999999987     49.256850000000000
H      48.338250000000002     49.017854999999990     45.713750000000005
H      46.566149999999993     49.262554999999999     46.379750000000001
H      46.594149999999999     47.817454999999995     47.935250000000003
H      49.814750000000004     48.673454999999997     49.429050000000004
H      46.550550000000001     49.450554999999987     50.062350000000002
H      47.840549999999993     50.567455000000002     48.784350000000003
N      47.597949999999997     49.139554999999994     46.463149999999999
O      47.970249999999993     47.081104999999987     50.286249999999995
O      46.185249999999996     45.432544999999998     49.825050000000005
