5

C      48.292349999999999     48.229649999999992     48.046104999999997
H      48.659749999999988     48.831950000000006     48.791615000000000
H      47.183250000000001     48.312150000000003     47.985685000000004
H      48.816749999999999     47.130449999999996     48.053845000000003
H      48.664149999999992     48.869550000000004     47.208385000000000
