52

C      48.964899999999993     46.489799999999988     48.219999999999992
C      49.430399999999999     47.328499999999998     49.370400000000004
C      48.018400000000000     51.833799999999989     45.556899999999999
C      48.484100000000005     46.901800000000001     46.907100000000000
C      49.106399999999994     48.766299999999994     49.337400000000002
C      47.162400000000005     50.499799999999993     45.897099999999995
C      47.957300000000004     51.302299999999995     46.969800000000006
C      48.394400000000005     48.450799999999994     46.934500000000000
C      48.701700000000002     49.252299999999998     48.135900000000007
C      49.137100000000004     45.036899999999996     48.381200000000007
C      49.531400000000005     45.072299999999998     49.744100000000003
C      49.960900000000002     46.350099999999998     50.445300000000003
C      49.528400000000005     46.697999999999986     51.728200000000001
C      48.190200000000004     44.098199999999999     47.549099999999996
C      47.345300000000002     43.075799999999994     48.237499999999997
C      45.889900000000004     43.074299999999994     48.051299999999998
C      45.297600000000003     44.200399999999995     47.385700000000000
C      47.795200000000001     44.569699999999997     46.216899999999995
C      47.865400000000001     45.961199999999998     45.967399999999998
C      47.257899999999999     46.577599999999997     44.795800000000000
C      47.261700000000005     49.072599999999987     46.217600000000004
C      48.889299999999999     50.720799999999997     47.988900000000001
C      48.931500000000000     51.663800000000002     44.410799999999995
C      49.962500000000006     53.120699999999992     44.213999999999999
C      46.455600000000004     47.926299999999998     45.536599999999993
C      45.332300000000004     50.990900000000003     45.845299999999995
C      47.866199999999999     52.889399999999988     46.606200000000001
C      49.399799999999999     44.196299999999994     50.785899999999998
H      49.305900000000001     49.388799999999996     50.246700000000004
H      47.508600000000001     42.125899999999994     48.572100000000006
H      45.412500000000001     42.406399999999998     48.914400000000001
H      46.911400000000000     44.061899999999994     45.741600000000005
H      48.125399999999999     46.870899999999999     44.156999999999996
H      46.609200000000001     45.803199999999997     44.340500000000006
H      49.984700000000004     50.919199999999996     47.815899999999999
H      48.817500000000003     50.961999999999996     49.116900000000001
H      49.339600000000004     50.787099999999988     44.684899999999999
H      48.735600000000005     51.110099999999996     43.499099999999999
H      49.555000000000000     53.874100000000006     44.802199999999999
H      51.238000000000000     53.113599999999998     44.669700000000006
H      46.068899999999999     47.757399999999997     46.590500000000006
H      45.473800000000004     48.229700000000001     45.093100000000007
H      45.431100000000001     51.380999999999993     44.774400000000000
H      44.871200000000002     51.429899999999996     46.667000000000002
H      44.762000000000000     49.990899999999989     45.624600000000001
H      48.571800000000003     53.454599999999992     46.835499999999996
H      46.779900000000005     53.361399999999996     46.663899999999998
H      49.393900000000002     43.139299999999999     50.959599999999995
H      49.904600000000002     44.229799999999997     51.776100000000000
H      50.088899999999995     53.318399999999990     43.155199999999994
O      45.383500000000005     45.166099999999993     46.760900000000007
O      49.154499999999999     46.949599999999997     52.844800000000006
