22

C      46.211049999999993     47.524449999999995     45.903049999999986
C      45.863849999999999     48.797950000000000     46.699749999999995
C      47.923649999999995     47.279550000000000     45.920049999999989
C      46.285950000000000     48.235150000000004     48.372249999999994
C      48.293650000000000     47.194649999999996     47.205349999999996
C      47.703749999999999     47.693049999999999     48.372149999999991
C      49.596649999999997     46.712450000000004     47.333449999999999
C      48.160950000000000     47.436450000000008     49.750649999999993
C      50.169550000000001     46.616950000000003     48.614750000000001
C      49.570650000000001     46.913849999999996     49.922649999999990
H      45.617249999999999     47.264449999999997     45.029049999999998
H      45.687849999999997     46.683949999999996     46.361249999999998
H      46.390050000000002     49.683350000000004     46.311349999999990
H      44.780850000000001     48.776449999999997     46.915349999999989
H      48.077950000000001     48.412250000000000     45.340049999999991
H      48.113849999999999     46.450150000000008     45.246349999999993
H      46.042049999999989     48.940750000000008     49.082650000000001
H      45.419749999999993     47.541449999999998     48.709849999999989
H      50.273449999999997     46.359650000000002     46.437849999999997
H      47.646349999999998     47.783850000000001     50.426749999999998
H      51.219149999999999     46.316649999999996     48.588650000000001
H      49.947549999999993     46.895949999999999     50.970950000000002
