6

C      47.866949999999989     48.654484999999994     47.697949999999992
C      47.734649999999995     47.373175000000003     48.042149999999992
H      48.460450000000002     48.854585000000000     46.806750000000008
H      47.950849999999996     49.457584999999995     48.248249999999999
H      48.192950000000003     46.542415000000005     47.525250000000000
H      47.539549999999998     47.307014999999993     49.193249999999992
