25

C      51.461199999999991     47.582449999999994     47.074649999999984
C      48.320200000000000     48.671749999999989     46.441549999999992
C      50.177099999999996     49.263849999999991     48.142150000000001
C      48.727400000000003     49.086849999999998     47.988450000000000
C      48.528599999999997     46.504350000000002     47.795049999999989
C      47.890299999999996     47.948449999999994     47.708749999999995
C      46.701899999999995     48.062349999999995     48.353149999999999
C      46.061700000000002     47.388049999999993     49.444549999999992
C      45.729900000000001     48.603049999999996     47.511150000000001
C      44.653300000000002     47.860049999999987     49.426850000000002
C      44.555700000000002     48.611949999999993     48.181950000000001
H      47.666799999999995     45.948549999999997     47.369450000000001
H      49.242599999999996     48.226849999999999     45.830649999999991
H      47.799099999999996     49.380449999999996     45.783850000000001
H      50.587699999999998     49.820549999999997     49.087249999999997
H      50.483599999999996     49.880949999999999     47.359049999999996
H      48.177599999999998     50.051450000000003     48.123750000000001
H      48.613399999999999     46.087050000000005     48.810749999999999
H      49.253399999999999     46.055149999999998     47.211749999999995
H      46.642499999999998     46.955550000000002     50.190049999999999
H      45.901200000000003     49.023749999999993     46.579549999999998
H      44.078299999999999     47.519350000000003     50.216149999999999
H      43.681299999999993     49.238349999999997     47.695250000000001
O      52.318700000000007     47.294950000000000     46.303749999999994
O      50.693299999999994     47.802750000000003     48.018649999999994
