17

C      49.456324999999993     46.059899999999985     47.439149999999991
C      47.117834999999999     47.866700000000009     49.343150000000001
C      48.357585000000000     48.365099999999998     48.515850000000000
C      48.698614999999997     47.203099999999992     49.184950000000001
C      49.373424999999997     45.984200000000001     48.878450000000001
C      48.646034999999998     48.456299999999999     47.117950000000000
C      48.520064999999995     49.976799999999997     48.939950000000003
C      49.209924999999998     47.213000000000008     46.607149999999997
H      47.065105000000003     48.348300000000009     50.428150000000002
H      49.760624999999997     45.229299999999995     46.986750000000001
H      49.494225000000000     50.344899999999996     48.736849999999997
H      46.162275000000001     47.637299999999996     48.902249999999995
H      49.837724999999999     45.231200000000001     49.563749999999999
H      48.643414999999997     49.176500000000004     46.479050000000001
H      47.740904999999998     50.770700000000005     48.490750000000006
H      49.357424999999999     47.344899999999996     45.571849999999998
H      48.475895000000001     50.226299999999995     50.111450000000005
