22

C      46.463299999999990     48.675999999999988     49.504899999999992
C      46.067599999999999     49.795999999999992     48.523099999999992
C      47.887899999999995     48.566599999999994     49.838499999999989
C      46.954299999999996     49.565399999999997     47.112899999999989
C      48.637899999999995     47.886200000000002     48.581199999999988
C      48.026800000000001     48.389099999999999     47.416699999999999
C      49.734200000000008     46.944599999999994     48.409399999999998
C      48.636400000000002     48.187299999999993     46.152399999999993
C      50.303699999999999     46.438500000000005     47.218199999999989
C      49.797300000000000     47.242599999999996     46.070699999999995
H      46.042200000000001     47.890500000000003     48.835799999999999
H      45.544699999999999     48.769700000000000     50.325299999999991
H      46.346299999999999     50.543999999999997     49.338099999999990
H      45.096499999999999     49.719300000000004     48.513199999999991
H      47.668099999999988     48.177400000000006     50.824700000000000
H      48.443599999999996     49.339800000000011     50.497199999999999
H      47.607300000000002     50.154200000000003     46.661999999999999
H      46.352800000000002     49.210499999999996     46.068599999999996
H      50.123599999999989     46.690299999999993     49.487699999999997
H      48.559899999999999     48.930300000000003     45.289299999999990
H      50.903500000000001     45.456000000000003     47.181699999999999
H      50.402299999999990     47.014799999999994     45.175300000000000
