22

C      47.718149999999994     47.726349999999996     45.484049999999996
C      48.978349999999999     48.869849999999992     45.723049999999994
C      47.203049999999998     46.695549999999990     46.446850000000005
C      49.079850000000000     49.228549999999991     47.178850000000004
C      47.319749999999999     47.168149999999990     47.895249999999997
C      48.180150000000005     48.250349999999990     48.234850000000002
C      46.469049999999996     46.629649999999991     48.955549999999995
C      48.529350000000001     48.488449999999993     49.626849999999997
C      46.628949999999996     46.946649999999998     50.275849999999998
C      47.626150000000003     48.044649999999997     50.668950000000002
H      47.799349999999997     47.476949999999995     44.415550000000003
H      46.805850000000000     48.309449999999991     45.539850000000001
H      48.559649999999998     49.756349999999991     45.087550000000000
H      49.534349999999996     48.097649999999994     45.305050000000001
H      47.729149999999997     45.775449999999999     46.609249999999996
H      46.340750000000000     46.035850000000003     46.428850000000004
H      48.568549999999995     50.224550000000001     47.227850000000011
H      50.241050000000001     49.431249999999999     47.503049999999995
H      45.758949999999999     45.850149999999992     48.804850000000009
H      49.191150000000000     49.356850000000001     49.816250000000004
H      46.171149999999997     46.336849999999991     50.874650000000003
H      47.439050000000002     48.623950000000001     51.584449999999997
