22

C      49.509949999999989     49.114049999999999     49.632794999999987
C      50.402849999999994     48.230150000000009     48.709499999999991
C      48.339649999999999     48.432749999999999     49.970815000000002
C      49.717049999999993     47.977250000000012     47.359255000000005
C      47.564149999999998     48.159150000000011     48.590914999999995
C      48.130350000000000     47.660750000000007     47.321455000000014
C      46.105049999999999     48.034150000000011     48.624744999999990
C      47.278149999999997     47.079750000000004     46.385955000000010
C      45.383449999999996     47.112250000000003     47.838655000000003
C      45.967349999999996     46.572250000000011     46.606555000000000
H      49.343849999999996     50.122850000000000     48.964329999999990
H      50.113450000000007     49.285750000000007     50.529274999999998
H      51.487349999999999     48.893750000000011     48.729372999999995
H      50.800550000000008     47.517949999999999     49.395354999999995
H      48.516050000000000     47.495150000000010     50.402315000000002
H      48.040950000000002     49.278350000000003     50.585245000000000
H      50.077050000000000     48.945450000000008     46.801155000000008
H      50.122149999999998     47.248650000000012     46.831055000000021
H      45.799450000000000     48.044950000000000     49.526164999999992
H      47.720950000000002     46.988150000000005     45.414755000000000
H      44.512650000000001     46.474550000000008     48.215493699999996
H      45.442050000000002     45.877150000000000     45.986654999999999
