37

C      50.182259999999999     46.545449999999988     45.395149999999994
C      49.670360000000002     44.982950000000002     45.646950000000004
C      49.893360000000001     47.713449999999995     46.390249999999995
C      49.264160000000004     44.673950000000005     47.261750000000006
C      49.158460000000005     47.268250000000009     47.665350000000004
C      49.123760000000004     45.924350000000004     48.247150000000005
C      48.782560000000004     48.335750000000004     48.646150000000006
C      48.919560000000004     45.651749999999993     49.581249999999997
C      48.617959999999997     48.020949999999999     49.977350000000001
C      48.476960000000005     46.707750000000004     50.510549999999995
C      49.172260000000009     48.859049999999996     45.319550000000007
C      46.782060000000001     47.994649999999993     44.925049999999999
C      47.776359999999997     49.172750000000008     45.453050000000005
C      47.174959999999999     48.625050000000002     46.420749999999998
C      47.472760000000008     50.669349999999994     45.771450000000002
C      46.132060000000010     48.931749999999994     47.488849999999999
C      46.376660000000001     51.064250000000001     46.654449999999997
C      45.553359999999998     50.286150000000006     47.610650000000007
H      51.281759999999991     46.242850000000004     45.581249999999997
H      49.958359999999999     46.824950000000001     44.358249999999998
H      48.571860000000001     44.867949999999993     45.578749999999999
H      50.279960000000003     44.111549999999994     45.547849999999997
H      50.907960000000003     48.049449999999993     46.682950000000005
H      49.626159999999999     44.018749999999997     47.931250000000006
H      48.326459999999997     44.227750000000000     47.210849999999994
H      48.880760000000009     49.424149999999997     48.260850000000005
H      48.537360000000007     44.686949999999996     49.818349999999995
H      48.476160000000007     48.665250000000000     50.792950000000005
H      48.133960000000002     46.389150000000001     51.641750000000002
H      49.207560000000001     48.331450000000004     44.394750000000002
H      49.882660000000001     49.541049999999998     45.681250000000006
H      45.735259999999997     48.034649999999999     44.976749999999996
H      47.457560000000001     47.138350000000003     44.594949999999997
H      47.927059999999997     51.589050000000000     45.616550000000004
H      45.233760000000004     48.362750000000005     47.836449999999999
H      46.166460000000001     51.981250000000003     46.216549999999998
H      44.718240000000009     50.632249999999999     48.009950000000003
