6

C      47.478699999999989     48.287249999999993     48.131699999999995
C      48.635300000000001     47.854650000000007     47.491000000000000
H      47.042299999999997     47.730850000000004     49.072699999999998
H      46.869100000000003     49.099549999999994     47.947400000000002
H      49.008300000000006     46.900450000000006     47.289199999999994
H      49.130899999999997     48.637749999999997     46.927300000000002
