22

C      46.827704999999987     49.695049999999995     48.619049999999987
C      48.349705000000000     50.147949999999994     49.466650000000001
C      46.968004999999991     47.237049999999996     49.025549999999996
C      48.802354000000001     48.689250000000001     49.966949999999997
C      47.365404999999996     48.260549999999995     47.919849999999997
C      48.440104999999988     47.489750000000001     49.064650000000000
C      47.317104999999998     47.889150000000001     46.433949999999996
C      49.249040999999991     46.718249999999998     48.299449999999993
C      48.163505000000001     46.709950000000006     46.084850000000003
C      49.322628999999992     46.160950000000000     46.934149999999988
H      46.441204999999997     50.373349999999988     47.932049999999990
H      45.916304999999994     49.609750000000005     49.358249999999998
H      48.551940840000000     50.424549999999996     48.443849999999998
H      48.147304999999989     50.639949999999999     50.466049999999996
H      46.863104999999990     46.121750000000006     48.663049999999998
H      46.277004999999988     47.697350000000000     49.755749999999992
H      48.201004999999995     48.088549999999998     50.793250000000000
H      49.841414999999998     48.925250000000005     49.952149999999989
H      46.774304999999998     48.323449999999994     45.577349999999996
H      50.083695000000006     46.546750000000003     48.918849999999992
H      48.325504999999993     46.277550000000005     45.206750000000000
H      50.002605000000003     45.360050000000001     46.619450000000001
