22

C      48.103499999999990     45.695549999999997     48.752999999999986
C      49.284700000000001     45.556049999999999     48.111099999999993
C      48.069899999999997     47.165350000000004     49.698899999999995
C      49.300899999999999     46.689549999999997     47.064800000000005
C      47.851999999999997     48.227549999999994     48.561700000000002
C      48.710999999999999     48.034649999999999     47.348399999999998
C      46.917299999999997     49.326849999999993     48.849699999999999
C      48.802499999999995     49.163749999999993     46.501499999999993
C      47.362099999999998     50.548549999999992     48.164199999999994
C      48.315999999999995     50.462649999999996     47.014200000000002
H      47.189299999999996     45.628649999999993     48.040499999999994
H      47.888199999999998     44.814849999999993     49.299700000000001
H      49.835700000000003     44.664050000000003     48.474500000000006
H      50.153999999999996     45.874049999999997     48.777699999999996
H      48.767699999999991     47.730750000000000     50.364999999999995
H      47.325699999999998     47.149449999999987     50.450900000000004
H      48.794699999999992     45.746049999999997     46.426199999999994
H      50.199500000000000     46.544049999999999     46.164500000000004
H      45.800500000000000     49.111249999999998     49.235100000000003
H      49.365399999999994     49.314649999999986     45.549099999999996
H      46.738499999999995     51.305349999999990     48.220500000000001
H      48.492799999999988     51.335949999999997     46.300200000000004
