6

C      48.233349999999987     47.295699999999989     48.161099999999998
C      47.586149999999996     48.550800000000010     47.991399999999999
H      49.367250000000006     47.405799999999999     48.213100000000004
H      47.552349999999997     46.368099999999998     48.545299999999997
H      46.632749999999994     48.550700000000006     47.454700000000003
H      47.699750000000002     49.631900000000002     47.751900000000006
