5

C      47.969650000000001     47.963499999999996     48.215239999999994
H      47.174549999999996     47.116199999999999     48.573340000000002
H      48.153449999999992     47.984300000000012     47.166820000000001
H      47.673950000000005     48.883800000000001     48.806700000000006
H      48.825450000000004     47.584900000000012     48.833179999999999
