22

C      48.436349999999990     47.713299999999990     45.433349999999983
C      46.952449999999999     47.435400000000001     45.940249999999992
C      49.248350000000002     47.446700000000007     46.894249999999992
C      46.785349999999994     46.535100000000000     47.093049999999991
C      48.492350000000002     48.282499999999999     48.102849999999997
C      47.405850000000001     47.376300000000001     48.351949999999995
C      48.933250000000001     49.482399999999998     48.758150000000001
C      46.804050000000004     47.804400000000001     49.655549999999998
C      48.348450000000000     49.677100000000010     50.035950000000000
C      47.238150000000005     48.898600000000002     50.391949999999980
H      48.747550000000004     47.106700000000004     44.617949999999993
H      48.471050000000005     48.575900000000004     44.780149999999992
H      46.080550000000002     47.563900000000004     45.212449999999990
H      46.980949999999993     48.378000000000000     46.461549999999995
H      49.250150000000005     46.321100000000001     47.053349999999988
H      50.318349999999995     47.981400000000008     47.046649999999985
H      47.253050000000002     45.562100000000001     47.047949999999986
H      45.681650000000005     46.368700000000004     46.905849999999994
H      50.009550000000004     49.774799999999999     48.381049999999988
H      45.931449999999998     47.188699999999997     49.745049999999992
H      49.192849999999993     50.437899999999999     50.338149999999985
H      46.800349999999995     48.989000000000004     51.382050000000007
