22

C      47.358849999999990     49.464600000000004     50.098679999999995
C      48.259750000000004     50.166600000000003     49.404480000000000
C      47.949350000000003     47.802599999999998     49.970480000000002
C      48.585349999999998     50.040199999999999     47.962080000000000
C      48.194449999999996     47.512699999999995     48.419979999999995
C      48.615950000000005     48.486000000000004     47.458579999999998
C      48.623049999999999     46.146599999999992     48.112079999999999
C      48.616449999999993     48.151200000000003     46.096899999999998
C      48.562649999999998     45.612300000000005     46.773190000000000
C      48.582150000000006     46.755799999999994     45.819330000000001
H      46.581150000000001     48.991599999999991     49.567279999999997
H      47.162150000000004     49.913799999999995     51.135880000000000
H      49.124249999999996     49.832499999999996     50.117179999999998
H      48.116350000000004     51.411299999999997     49.797080000000001
H      47.570850000000000     46.780100000000004     50.440579999999997
H      48.479849999999992     47.706599999999995     50.947379999999995
H      47.843650000000004     50.809399999999997     47.583880000000001
H      49.418849999999999     50.537800000000004     47.653680000000001
H      49.009650000000001     45.530000000000001     48.899279999999997
H      48.617449999999998     48.955100000000002     45.471670000000003
H      48.974749999999993     44.588700000000003     46.455420000000004
H      48.881049999999995     46.317200000000000     44.864120000000000
