22

C      45.469800000000006     48.622865000000004     48.197799999999994
C      45.585600000000007     47.216975000000005     48.099400000000003
C      46.940200000000011     49.303764999999999     48.401399999999995
C      46.695300000000010     46.911635000000004     46.861099999999993
C      48.289500000000011     48.556065000000004     48.405599999999993
C      48.043400000000013     47.436194999999998     47.490200000000002
C      49.462700000000005     48.842165000000008     49.248699999999999
C      49.116300000000003     46.507925000000000     47.249499999999998
C      50.485100000000010     47.787565000000001     49.220299999999995
C      50.219500000000004     46.909954999999997     48.138400000000004
H      44.702900000000007     48.863164999999995     49.051699999999997
H      45.197700000000005     49.084164999999999     47.279899999999998
H      44.628200000000000     46.752915000000002     47.760099999999994
H      45.927000000000000     46.857765000000001     49.148200000000003
H      47.062200000000011     49.481265000000008     49.395799999999994
H      47.323200000000007     50.320664999999991     47.678200000000004
H      46.542100000000012     47.641244999999998     45.978200000000001
H      46.908200000000001     45.771205000000009     46.963899999999995
H      49.559100000000008     49.624065000000002     50.021799999999999
H      49.497400000000006     45.679335000000009     46.498199999999997
H      51.371800000000000     47.797865000000002     49.830600000000004
H      51.039700000000003     46.392875000000004     47.710700000000003
