9

C      48.826399999999992     48.839099999999995     48.538099999999993
C      47.349099999999993     48.786799999999999     47.965599999999995
C      47.076899999999995     47.255200000000002     47.870699999999999
H      47.372000000000000     49.454700000000003     47.027699999999996
H      46.613000000000000     49.206699999999998     48.684500000000000
H      47.708699999999993     46.820900000000009     47.078999999999994
H      47.086699999999993     46.545299999999997     48.870900000000006
H      46.182299999999998     47.110399999999998     47.252300000000005
O      49.817700000000002     48.767499999999998     48.972300000000004
