22

C      48.158566999999991     48.056299999999993     50.582549999999983
C      46.955820000000017     49.042300000000004     50.238849999999992
C      47.992986999999999     46.779699999999998     49.771049999999995
C      46.352520000000027     48.627299999999998     48.707850000000001
C      48.250287000000000     47.125399999999999     48.347249999999995
C      47.374120000000005     48.116700000000002     47.706449999999997
C      49.488230000000001     46.641199999999998     47.658250000000002
C      47.756120000000010     48.537600000000005     46.322749999999992
C      49.687710000000010     47.209600000000002     46.325049999999997
C      48.735100000000017     47.895099999999999     45.545150000000000
H      49.050070000000005     48.659500000000001     50.175249999999998
H      47.971653000000003     47.545000000000002     51.551949999999998
H      47.036420000000035     50.175199999999997     49.955649999999999
H      46.199420000000003     48.797699999999999     51.120849999999997
H      48.705703000000014     46.265200000000000     50.197449999999996
H      46.979719999999986     46.249000000000002     49.674749999999996
H      45.593819999999994     47.999400000000001     48.610049999999994
H      45.698320000000038     49.429900000000004     48.164749999999991
H      50.021160000000009     45.824800000000003     48.124649999999995
H      46.830620000000025     49.150599999999990     45.897149999999989
H      50.406180000000006     46.793399999999998     45.500749999999989
H      48.723117999999999     48.006000000000000     44.448050000000002
