22

C      47.431649999999991     45.923049999999996     46.302349999999990
C      46.278650000000006     46.768650000000008     46.922950000000000
C      48.641550000000002     45.904949999999999     47.348550000000003
C      46.892150000000008     47.777349999999998     47.959450000000004
C      48.326349999999998     47.262550000000005     48.252350000000007
C      49.480950000000000     47.515250000000009     49.086350000000010
C      47.491950000000010     48.945550000000004     47.517150000000015
C      49.798750000000005     48.733950000000007     49.794449999999998
C      48.036650000000002     49.944350000000000     48.626350000000002
C      49.014150000000008     49.836449999999999     49.605050000000006
H      47.166150000000009     44.875850000000000     45.861249999999998
H      47.891950000000001     46.293750000000003     45.341250000000002
H      45.486150000000002     46.218050000000005     47.156250000000014
H      45.586050000000007     47.394550000000010     46.174250000000001
H      49.584550000000000     46.073450000000008     46.759150000000005
H      48.653550000000003     44.991050000000001     47.979750000000010
H      46.203049999999998     47.974750000000000     49.127650000000017
H      49.965850000000010     46.519850000000005     49.439750000000018
H      47.723149999999997     49.447650000000003     46.566150000000007
H      50.513849999999998     48.589050000000000     50.658749999999998
H      47.766550000000002     51.124150000000000     48.442650000000000
H      49.280350000000006     50.488650000000007     50.462150000000008
