5

C      48.126549999999995     47.900149999999989     48.045099999999991
H      48.488150000000005     47.303349999999995     47.104799999999997
H      48.863250000000001     48.706350000000000     48.304400000000001
H      48.162849999999999     47.293650000000000     48.895200000000003
H      47.136749999999999     48.319649999999996     47.835999999999999
