18

C      46.966949999999990     49.058849999999993     45.746599999999994
C      49.047349999999994     48.891950000000001     47.647100000000009
C      47.298649999999995     47.108749999999993     47.572400000000002
C      47.758649999999996     49.305550000000004     48.035899999999998
C      47.884450000000001     48.268250000000002     47.070000000000000
C      47.349949999999993     49.656950000000002     49.327599999999997
C      47.223050000000001     46.397849999999998     48.775700000000001
C      47.087149999999994     48.593150000000001     50.176199999999994
C      47.281949999999995     47.095049999999993     49.965599999999995
H      47.241450000000000     48.413249999999998     44.841999999999999
H      47.143850000000000     50.186649999999993     45.616799999999998
H      45.874150000000000     48.717149999999997     45.892600000000002
H      50.125850000000000     48.878650000000000     47.800399999999996
H      47.352949999999993     46.487249999999996     46.729900000000001
H      47.521149999999999     50.665749999999996     49.881600000000006
H      47.020249999999997     45.334250000000004     48.807600000000001
H      47.117750000000001     49.019950000000001     51.158000000000001
H      47.285649999999990     46.449149999999996     50.858900000000006
