22

C      49.719849999999994     45.779349999999994     48.430549999999982
C      48.550950000000000     45.551050000000004     47.601350000000011
C      49.722250000000003     47.259249999999994     48.778149999999997
C      47.034550000000010     46.112949999999998     48.089449999999999
C      48.548650000000009     48.171850000000006     48.203650000000010
C      47.218050000000005     47.577749999999995     47.809650000000005
C      48.587550000000007     49.492649999999998     47.729950000000002
C      46.057749999999999     48.256749999999997     47.130750000000006
C      47.479050000000001     50.331149999999994     47.114550000000008
C      46.325350000000000     49.690749999999994     46.732050000000001
H      49.937550000000002     45.066850000000002     49.309250000000006
H      50.583950000000002     45.450450000000004     47.677950000000010
H      49.014450000000011     45.843350000000001     46.650450000000006
H      48.552550000000011     44.513350000000003     47.287149999999997
H      50.327150000000003     47.422550000000001     49.767650000000003
H      50.325750000000014     47.588149999999999     48.203350000000000
H      46.887650000000008     45.780749999999998     49.165850000000006
H      46.267750000000007     45.525049999999993     47.590150000000008
H      49.667550000000006     49.853949999999998     47.726350000000011
H      45.416049999999998     47.439949999999996     46.671350000000004
H      47.588149999999999     51.486649999999997     46.974550000000008
H      45.660950000000000     50.200249999999997     46.232349999999997
