22

C      47.779199999999996     50.480599999999995     48.127099999999992
C      48.959199999999996     49.689900000000002     47.268099999999997
C      47.137500000000003     49.272799999999997     48.880099999999999
C      46.725000000000009     47.988700000000001     46.819499999999998
C      47.465699999999998     48.057600000000001     48.171900000000008
C      48.304400000000001     48.229300000000002     47.051699999999997
C      47.261899999999997     46.687000000000005     48.778499999999994
C      49.171500000000009     47.180600000000005     46.723799999999997
C      47.811999999999998     45.657800000000002     48.093800000000002
C      48.887699999999995     45.874100000000006     47.150300000000001
H      47.366100000000003     50.629500000000000     47.182699999999997
H      48.225099999999998     51.324300000000001     48.575199999999995
H      49.772100000000009     49.631700000000002     47.800199999999997
H      49.221199999999996     50.109800000000000     46.060200000000002
H      46.097700000000003     49.311500000000002     48.856099999999998
H      47.531599999999997     49.158800000000006     49.939799999999998
H      45.725700000000003     48.214599999999997     47.094200000000001
H      46.792500000000004     47.023699999999998     46.248199999999997
H      46.323800000000006     46.449900000000007     49.373500000000000
H      50.274299999999997     47.387599999999999     46.106400000000001
H      47.446500000000000     44.675699999999999     48.514899999999997
H      49.497799999999998     45.117200000000004     46.670000000000002
