22

C      46.524450000000002     48.806049999999992     46.964699999999993
C      47.644750000000009     49.960549999999998     46.618000000000002
C      48.007150000000003     46.672150000000002     46.524799999999999
C      49.105550000000001     49.374350000000000     47.003000000000007
C      47.398850000000003     47.597250000000003     47.611499999999999
C      48.718250000000005     47.938749999999999     47.587400000000009
C      46.619250000000001     46.605649999999997     48.583399999999997
C      49.247050000000009     47.479050000000001     48.859199999999994
C      47.323750000000011     45.831450000000004     49.428099999999993
C      48.678249999999998     46.449550000000002     49.661799999999992
H      45.997150000000012     48.868650000000002     45.829799999999999
H      45.856050000000003     49.041349999999994     47.926799999999993
H      47.904450000000004     49.951650000000001     45.504100000000001
H      47.395050000000005     50.866050000000001     47.159600000000005
H      47.518950000000011     46.847049999999996     45.495600000000003
H      48.154850000000003     45.692450000000001     46.624000000000002
H      49.620049999999999     49.771749999999997     47.961800000000004
H      49.843750000000007     49.206850000000003     46.149999999999999
H      45.664149999999999     46.847949999999997     48.103600000000007
H      50.335850000000001     47.493849999999995     49.269700000000007
H      46.875050000000009     45.133949999999999     50.134100000000011
H      49.144150000000003     45.957949999999997     50.504399999999997
