22

C      48.194189999999992     47.194499999999991     49.469689999999986
C      49.082590000000003     45.895300000000006     49.202589999999994
C      48.651090000000003     48.619299999999996     49.683689999999991
C      47.906489999999998     49.678500000000000     50.748313000000003
C      47.694589999999998     48.207600000000014     48.589589999999994
C      47.452790000000000     48.587700000000012     47.191989999999997
C      46.592129999999997     47.768300000000011     46.401489999999988
C      47.965789999999998     49.677499999999995     46.419889999999988
C      46.526649999999997     48.233800000000002     45.037089999999999
C      47.273089999999996     49.548400000000001     45.124789999999997
H      49.199589999999993     45.327600000000004     50.151948000000004
H      47.379590000000000     46.937799999999996     50.337810000000005
H      50.064489999999999     46.121300000000005     48.942889999999998
H      48.503089999999993     45.125699999999995     48.474789999999992
H      46.822489999999995     49.504199999999997     50.704343999999999
H      49.620489999999997     48.992999999999995     49.395689999999995
H      48.276589999999992     49.472800000000007     51.890210000000003
H      48.094389999999997     50.874300000000005     50.837973999999996
H      46.042909999999999     46.924800000000005     46.665089999999999
H      48.835189999999990     50.291700000000006     46.838289999999994
H      45.935510000000001     48.034100000000009     44.134689999999999
H      47.349390000000000     50.036799999999999     44.109789999999997
