22

C      48.084799999999987     48.729749999999989     45.804349999999992
C      46.892999999999994     47.725350000000006     45.804249999999996
C      49.207299999999996     48.345250000000007     46.765650000000001
C      46.969499999999996     46.723849999999999     47.033950000000004
C      48.354699999999987     48.339749999999995     48.157849999999996
C      47.296999999999997     47.399249999999995     48.260649999999998
C      48.357499999999995     49.367350000000002     49.194249999999997
C      46.304199999999994     47.161249999999995     49.351050000000001
C      47.617699999999992     49.080849999999998     50.452050000000000
C      46.561399999999999     48.107050000000001     50.301949999999991
H      47.823999999999998     49.906250000000000     45.853349999999992
H      48.572399999999995     48.872349999999997     44.747950000000003
H      46.347799999999999     47.730850000000004     45.021450000000002
H      46.106099999999998     48.229050000000001     46.444249999999997
H      50.336700000000000     48.362350000000006     46.502549999999999
H      49.311899999999994     47.457850000000008     46.076049999999995
H      46.223399999999998     45.962450000000004     47.010950000000001
H      47.603899999999996     45.852649999999997     46.841750000000005
H      49.118999999999993     50.147350000000003     49.228149999999999
H      45.663300000000000     46.238950000000003     49.494050000000001
H      47.351399999999991     49.780249999999995     51.252049999999997
H      45.872299999999996     48.121150000000000     51.192250000000001
