64

C      47.920099999999998     46.457399999999986     52.851249999999993
C      46.962600000000002     48.537800000000004     47.631450000000001
C      46.915700000000001     47.113100000000003     48.307450000000003
C      50.970599999999997     46.104799999999997     47.181850000000004
C      48.313499999999998     48.775599999999997     47.042050000000003
C      47.780300000000004     46.257599999999996     49.299849999999999
C      50.705900000000000     47.491699999999994     46.954550000000005
C      49.263000000000005     47.780599999999993     47.412950000000002
C      48.639499999999998     46.708399999999997     48.380950000000006
C      45.590499999999999     48.804299999999998     47.321550000000002
C      43.122399999999999     48.239899999999992     47.665550000000003
C      44.557600000000001     47.923199999999994     47.683850000000000
C      45.355300000000000     46.871300000000005     48.566549999999999
C      48.355000000000004     50.120000000000005     46.291249999999998
C      47.115100000000005     50.898499999999999     46.658650000000002
C      45.607199999999999     50.181399999999996     46.596350000000001
C      47.624900000000004     45.390400000000000     50.442250000000001
C      46.180399999999999     45.274299999999997     50.764550000000000
C      45.366100000000003     46.739999999999995     50.119050000000001
C      51.969200000000015     45.422799999999995     46.146950000000004
C      53.017499999999998     46.528700000000001     45.213749999999997
C      52.218100000000007     47.537399999999991     44.601050000000008
C      51.359800000000000     48.263700000000000     45.784950000000002
C      45.502400000000002     48.075699999999998     50.868650000000002
C      44.121400000000001     48.433300000000003     51.647250000000000
C      51.199100000000001     46.788600000000002     43.582150000000006
C      48.601199999999999     45.411000000000001     51.693350000000002
C      52.894800000000004     48.706800000000001     43.828650000000003
C      43.964800000000004     46.340800000000002     49.525449999999999
H      48.794500000000014     46.357900000000001     53.623950000000001
H      49.460500000000003     50.662899999999993     46.350250000000003
H      48.198000000000000     49.632099999999994     45.378750000000004
H      47.331700000000005     51.427499999999995     47.700949999999999
H      47.027600000000000     51.645099999999999     45.847450000000002
H      45.289100000000005     50.345799999999997     45.524650000000001
H      44.650900000000000     50.700299999999999     46.910350000000001
H      47.854900000000001     44.485500000000002     49.936250000000001
H      46.005000000000003     45.035699999999991     51.634850000000000
H      45.828500000000005     44.354900000000001     50.145450000000004
H      51.595000000000006     44.691500000000005     45.476250000000000
H      52.520699999999998     44.720100000000002     46.709750000000007
H      54.005199999999995     46.823799999999991     45.660050000000005
H      53.244499999999988     45.929699999999997     44.431550000000001
H      51.755099999999999     48.926099999999991     46.621350000000000
H      50.764699999999991     49.230999999999995     45.424250000000008
H      45.718600000000002     48.864800000000002     50.301750000000006
H      46.025600000000004     47.562200000000004     51.664450000000002
H      44.215700000000005     47.408500000000004     52.080850000000005
H      43.175800000000002     48.623400000000004     50.994350000000004
H      44.332900000000002     49.357900000000001     52.279650000000004
H      50.077300000000008     47.148200000000003     43.862550000000006
H      51.461600000000004     46.743600000000001     42.376049999999999
H      51.161499999999990     45.801699999999997     43.762850000000007
H      50.151299999999999     44.461199999999991     48.247450000000008
H      49.713099999999997     45.509500000000003     51.692150000000005
H      48.546700000000016     44.356099999999998     51.948750000000004
H      53.099000000000004     49.574399999999997     44.524350000000005
H      53.934199999999990     47.964900000000000     43.532249999999998
H      52.244000000000014     49.055499999999995     42.925850000000004
H      43.132800000000003     46.999499999999998     49.323050000000002
H      43.773400000000002     45.442099999999996     49.332250000000002
N      50.020199999999996     45.562100000000001     48.062150000000003
O      46.808800000000005     46.367899999999992     53.023050000000005
O      41.994800000000005     48.121300000000005     47.744050000000001
