21

C      46.788499999999992     46.873219999999996     47.996149999999993
C      49.640099999999997     45.433219999999992     49.377549999999999
C      49.235199999999992     47.934173099999995     49.571650000000005
C      49.388700000000000     46.571320000000000     50.034449999999993
C      47.633300000000006     48.043503000000001     47.656649999999999
C      48.654499999999999     48.764375999999999     48.315449999999998
C      47.382300000000001     48.761883000000012     46.411050000000003
C      49.135300000000001     50.093240000000009     47.910950000000000
C      47.890599999999992     49.987950000000005     45.857650000000000
C      48.955399999999997     50.593270000000004     46.657350000000001
H      47.232600000000005     46.471919999999997     48.929150000000000
H      45.904899999999998     47.528620000000004     48.415649999999999
H      49.506900000000002     45.453720000000004     48.314949999999996
H      46.049300000000002     46.354619999999997     47.324950000000001
H      48.869599999999998     48.429138000000009     50.533950000000004
H      49.385899999999999     46.562219999999996     51.210149999999999
H      49.874000000000002     44.540920000000000     50.109750000000005
H      46.515299999999996     48.450997000000015     45.868350000000000
H      50.095100000000002     50.318740000000005     48.363450000000000
H      47.518000000000001     50.322180000000003     44.789850000000001
H      49.486500000000007     51.459080000000000     46.429150000000000
