5

C      48.286899999999989     48.046249999999993     47.950499999999991
H      48.113399999999999     48.760750000000002     47.112199999999994
H      48.550299999999993     48.508250000000004     48.887800000000006
H      48.996800000000007     47.239249999999998     48.109500000000004
H      47.003199999999993     47.864550000000001     48.103699999999996
