8

C      47.976099999999988     48.357750000000003     47.395749999999992
C      47.582100000000004     47.625850000000000     48.811249999999994
H      47.525200000000005     49.194249999999997     47.751649999999991
H      49.082400000000000     48.456550000000007     47.372749999999996
H      47.347500000000004     48.007550000000009     46.574350000000003
H      47.049600000000005     46.805750000000003     48.608550000000001
H      48.286300000000004     47.114550000000008     49.137149999999998
H      46.917600000000000     48.561650000000000     49.425649999999997
