22

C      47.881649999999993     48.510199999999998     50.560899999999990
C      49.442149999999984     48.297200000000004     50.006399999999999
C      46.777149999999992     47.935900000000004     49.471299999999999
C      49.458050000000000     49.039199999999994     48.583500000000001
C      47.306849999999997     47.370999999999995     47.971100000000000
C      48.457849999999993     48.159099999999995     47.560200000000002
C      46.462750000000000     46.921199999999999     46.771999999999998
C      48.833249999999992     48.760199999999998     46.384000000000000
C      46.990250000000003     46.913299999999992     45.441099999999999
C      48.241149999999990     47.687299999999993     45.525299999999994
H      47.686349999999990     48.179699999999997     51.540900000000001
H      47.620549999999994     49.517399999999995     50.623500000000000
H      49.573949999999996     47.253299999999996     50.087499999999999
H      50.166849999999997     48.938400000000001     50.601700000000001
H      46.125749999999996     47.302300000000002     50.111399999999996
H      45.943449999999999     48.813699999999997     49.347299999999997
H      50.394750000000002     49.387100000000004     48.315100000000001
H      48.754449999999991     49.814099999999996     48.722099999999998
H      45.605249999999998     46.185900000000004     46.838400000000000
H      49.727449999999990     49.365099999999998     46.334699999999998
H      46.329049999999995     46.852800000000002     44.492699999999999
H      48.542749999999998     47.540499999999994     44.459099999999999
