22

C      48.655299999999997     48.616299999999995     50.583649999999992
C      47.373100000000001     47.898700000000005     50.963949999999997
C      49.303000000000004     47.805000000000007     49.484549999999999
C      46.739200000000004     47.463200000000001     49.431150000000002
C      48.637200000000000     48.017700000000005     48.028250000000000
C      47.439800000000005     47.302800000000005     48.066950000000006
C      49.269000000000013     48.510900000000007     46.905249999999995
C      47.155000000000008     46.649400000000000     46.717150000000004
C      49.012100000000011     47.838200000000001     45.614350000000002
C      47.809699999999999     47.081299999999999     45.452150000000003
H      49.195700000000009     48.692300000000003     51.485150000000004
H      48.197700000000005     49.610500000000002     50.361149999999995
H      46.245300000000007     47.902000000000001     51.312349999999995
H      47.721800000000009     47.005700000000004     51.341849999999994
H      49.818900000000006     46.972099999999998     49.955749999999995
H      50.238300000000002     48.387000000000000     49.290750000000003
H      46.211100000000009     46.575800000000001     49.736149999999995
H      45.737900000000003     48.102199999999996     49.252549999999999
H      50.262099999999997     48.829300000000003     47.185950000000005
H      46.055100000000003     46.389499999999998     46.222849999999994
H      49.318800000000003     48.702200000000005     44.931449999999998
H      47.360900000000008     47.058300000000003     44.514849999999996
