42

C      46.027199999999993     53.143599999999992     47.819684999999993
C      46.425800000000002     53.357800000000005     46.108595000000001
C      44.219500000000004     51.374099999999991     47.694884999999999
C      47.170700000000004     51.974600000000002     45.827234999999995
C      45.865800000000000     51.651599999999995     47.899985000000001
C      46.921799999999998     50.910800000000002     47.031984999999999
C      45.362699999999997     50.387599999999999     47.414385000000003
C      47.120600000000003     49.310700000000004     47.144084999999997
C      45.839999999999996     49.029699999999998     47.883884999999999
C      47.586199999999998     48.268399999999993     48.058585000000001
C      48.269500000000001     48.666800000000002     49.383985000000003
C      50.960599999999992     47.912399999999998     49.688184999999997
C      49.421100000000003     47.570399999999999     49.946284999999996
C      51.478500000000004     46.404299999999999     49.340984999999996
C      49.127699999999997     46.032099999999993     49.648684999999993
C      50.453499999999998     45.432300000000005     49.916885000000001
C      47.895900000000005     45.335699999999996     49.856784999999995
C      50.480499999999999     43.987599999999993     50.254285000000003
C      48.066799999999994     43.909299999999995     49.964284999999997
C      49.263299999999994     43.116399999999992     50.073884999999997
H      45.044099999999993     53.566499999999998     48.117584999999998
H      47.033099999999997     53.571700000000000     48.134184999999995
H      45.516200000000005     53.573199999999993     45.484935000000000
H      47.272799999999997     53.963000000000001     45.600394999999999
H      43.646200000000000     52.228599999999993     47.567785000000001
H      43.530600000000000     50.808900000000001     48.224084999999995
H      46.767099999999992     51.436299999999996     44.998615000000001
H      48.308900000000001     52.533600000000000     45.617555000000003
H      47.084200000000003     48.804099999999998     46.166224999999997
H      45.205499999999994     48.247300000000003     47.766784999999999
H      47.779199999999996     47.197899999999997     47.783985000000001
H      47.818099999999994     49.178999999999995     50.207684999999998
H      48.648500000000006     49.732099999999996     49.183884999999997
H      51.463400000000000     48.591500000000003     50.401584999999997
H      51.203299999999992     48.436199999999992     48.746285000000000
H      49.491499999999995     47.792499999999997     51.001384999999999
H      52.469400000000000     46.202599999999997     49.631585000000008
H      51.895699999999998     46.357700000000001     48.313084999999994
H      46.791199999999996     45.771799999999992     50.074984999999991
H      51.405300000000004     43.349699999999991     50.262684999999998
H      47.313399999999994     43.087299999999992     50.202184999999993
H      49.180900000000001     42.036999999999999     50.160184999999998
