5

C      48.005449999999996     48.012049999999988     48.167949999999990
H      47.162150000000004     48.800650000000005     48.148850000000003
H      47.409950000000002     47.199349999999995     48.073950000000004
H      48.592649999999999     48.052250000000001     47.099849999999996
H      48.837849999999996     47.528049999999993     48.900150000000004
