22

C      46.703773499999983     47.473199999999991     45.649349999999998
C      46.502773499999996     48.911799999999992     46.292649999999995
C      47.431773499999984     46.752699999999997     46.907650000000004
C      46.329873499999984     48.822499999999998     47.784750000000003
C      48.525173499999987     47.511199999999995     48.037949999999995
C      47.810273499999987     48.597900000000003     48.416150000000002
C      49.649873499999991     47.118099999999998     48.865549999999999
C      48.174273499999991     49.391199999999998     49.612649999999988
C      50.048973499999995     47.797199999999997     50.161249999999995
C      49.237473499999986     48.935899999999997     50.387649999999994
H      45.679473499999993     46.989899999999999     45.489649999999997
H      47.324573499999993     47.427700000000002     44.572149999999993
H      47.615473499999986     49.441299999999998     45.978049999999996
H      45.719473499999985     49.431899999999992     45.732550000000003
H      47.876573499999985     45.935099999999998     46.529550000000000
H      46.682373499999990     46.305100000000003     47.684449999999998
H      45.362273499999993     48.253800000000005     48.004649999999998
H      46.102873499999994     49.960999999999991     48.126249999999999
H      50.271673499999984     46.170700000000004     48.826350000000005
H      47.422073499999989     50.064900000000002     49.978350000000006
H      50.637726500000007     47.351599999999998     50.950050000000005
H      49.437773499999984     49.179300000000005     51.427850000000007
