54

C      46.439959999999985     49.587599999999995     46.751724999999993
C      45.403980000000004     50.079800000000006     47.695824999999985
C      49.393630000000002     47.617300000000000     50.416524999999993
C      48.207859999999997     48.049900000000008     51.147525000000002
C      47.642840000000007     48.815100000000001     47.209924999999998
C      45.683980000000005     49.842200000000005     49.044924999999992
C      49.043489999999991     47.588300000000004     48.991225000000000
C      46.898285000000001     48.685100000000006     50.886825000000002
C      47.717109999999991     48.280799999999999     48.599525000000000
C      46.662821000000008     48.814800000000005     49.511624999999995
C      46.214685000000003     49.708200000000005     45.313024999999996
C      44.924380000000014     50.135500000000008     44.846724999999992
C      44.242479999999986     50.815800000000010     46.963324999999998
C      50.550070000000005     46.906400000000005     51.224924999999999
C      50.709109999999995     47.056600000000003     52.606025000000002
C      49.699669999999998     47.809300000000007     53.362024999999988
C      48.575020000000009     48.083300000000008     52.633224999999996
C      47.204589999999996     49.105300000000000     44.384225000000001
C      46.783354000000003     49.164500000000004     42.891845000000004
C      45.453580000000017     49.364500000000007     42.515005000000002
C      44.439379999999986     49.748500000000007     43.474224999999990
C      48.443119999999993     48.746500000000012     44.960425000000001
C      48.719719999999995     48.289699999999996     46.281624999999991
C      50.297330000000002     47.555599999999998     48.155324999999991
C      51.211609999999993     46.108400000000003     50.128725000000003
C      51.475809999999996     46.623699999999999     48.862825000000001
C      47.217069999999993     48.630200000000002     53.483324999999994
C      52.575040000000001     45.612300000000005     50.636924999999991
C      51.879390000000001     45.475099999999998     47.809124999999995
C      51.681119999999993     48.082499999999996     48.864424999999997
H      45.159280000000010     50.122400000000013     49.866024999999993
H      46.551109999999994     49.206100000000006     51.728324999999998
H      43.532680000000028     51.535200000000003     47.422725000000000
H      51.405329999999992     46.419600000000003     53.051724999999990
H      49.683909999999997     47.981899999999996     54.537824999999998
H      47.345230000000001     49.477600000000010     41.815004999999999
H      45.272579999999991     49.176000000000002     41.462175000000002
H      43.315880000000007     50.016300000000001     43.313614999999999
H      49.426450000000003     48.378200000000007     44.425524999999993
H      50.307479999999998     45.239699999999999     49.843424999999996
H      53.111850000000004     46.300500000000000     51.276324999999986
H      53.157120000000006     45.403500000000008     49.837125000000000
H      52.321699999999993     44.464799999999997     51.047124999999994
H      51.163469999999990     44.466200000000001     48.010224999999991
H      51.745429999999999     45.636899999999997     46.593824999999995
H      52.619410000000002     48.374499999999998     49.250624999999999
H      50.782709999999994     48.007800000000003     46.094925000000003
H      51.260610000000000     48.684600000000003     49.757724999999994
H      52.926329999999993     45.057699999999997     48.005025000000003
H      42.842879999999994     50.927200000000013     45.125524999999996
H      46.132840700000003     48.273400000000009     53.488424999999992
N      43.838479999999990     50.703300000000013     45.644024999999999
N      49.902839999999998     47.370199999999997     46.633624999999995
O      47.499160000000003     49.598500000000001     54.059824999999989
