15

C      47.436099999999989     48.354454999999994     49.992399999999996
C      47.449399999999997     47.876354999999990     48.676199999999994
C      47.055499999999995     48.299655000000001     47.201099999999997
C      47.919799999999995     47.638154999999998     46.109600000000000
C      49.444699999999983     47.708754999999996     46.404100000000000
H      47.666599999999995     47.765154999999993     50.997500000000002
H      47.105399999999996     49.480845000000002     50.359600000000000
H      48.081900000000005     46.978655000000003     48.995099999999994
H      47.324099999999994     49.348611000000005     47.099900000000005
H      46.067799999999998     48.797941499999993     47.107600000000005
H      47.530499999999996     46.519154999999998     46.095100000000002
H      47.891499999999994     48.127654999999990     45.002499999999998
H      49.932200000000002     47.366254999999995     45.373400000000004
H      49.778100000000002     48.800033600000006     46.688000000000002
H      49.854200000000006     47.169654999999992     47.230900000000005
