22

C      48.094249999999995     46.310149999999993     46.036149999999992
C      47.566350000000000     47.776569999999992     45.647050000000000
C      48.319450000000003     45.978149999999999     47.517249999999997
C      48.769950000000009     48.805749999999989     46.394449999999999
C      48.643950000000004     47.189819999999997     48.357549999999996
C      48.555949999999996     48.592779999999991     47.870550000000001
C      49.119450000000001     46.855840000000001     49.671550000000003
C      48.834750000000000     49.746349999999993     48.771650000000001
C      49.374750000000006     48.045989999999989     50.558149999999991
C      49.411450000000002     49.538550000000001     50.019050000000000
H      47.326250000000002     45.476879999999994     45.637149999999998
H      48.954850000000008     46.074649999999991     45.329550000000005
H      46.455550000000002     48.167139999999989     46.114950000000000
H      47.551649999999995     47.930779999999984     44.572449999999996
H      49.199650000000005     45.328850000000003     47.606249999999996
H      47.308549999999997     45.603519999999989     47.787650000000006
H      49.544449999999998     48.124269999999996     45.974150000000002
H      48.761849999999995     49.888649999999998     46.233449999999998
H      49.013950000000008     45.836269999999999     49.893650000000001
H      48.610250000000008     50.671149999999997     47.964049999999993
H      49.305549999999997     47.685019999999994     51.427550000000004
H      49.538250000000005     50.507949999999994     50.567850000000000
