22

C      47.870199999999997     48.859599999999993     45.778899999999993
C      46.577600000000004     49.219899999999996     46.814499999999995
C      48.442599999999999     47.328599999999994     46.142399999999988
C      46.371499999999997     48.646299999999997     48.204000000000001
C      48.544499999999999     47.238000000000000     47.624200000000009
C      47.370100000000008     47.464399999999998     48.490299999999998
C      49.622299999999996     46.428700000000006     48.184399999999989
C      47.238100000000003     47.103999999999999     49.912999999999990
C      49.638700000000000     46.257000000000005     49.678300000000000
C      48.500699999999995     46.447699999999998     50.452999999999996
H      47.613799999999998     49.044100000000000     44.614399999999996
H      48.671000000000006     49.602400000000003     45.647900000000000
H      45.884399999999999     48.646699999999996     46.418399999999998
H      46.545100000000005     50.326499999999996     47.047599999999996
H      47.506500000000003     46.849699999999999     45.776699999999998
H      49.359600000000000     46.967900000000000     45.633099999999999
H      45.455299999999994     48.033699999999996     48.087800000000009
H      46.052199999999999     49.323700000000002     48.980899999999998
H      50.355900000000005     45.930000000000007     47.466400000000000
H      46.389600000000002     47.321200000000005     50.544799999999988
H      50.544700000000006     45.673500000000004     50.001300000000008
H      48.404200000000003     45.871200000000002     51.385600000000004
