31

C      51.197350000000000     48.290449999999993     46.742524999999993
C      45.837550000000007     45.509549999999997     46.127105000000000
H      45.019450000000006     48.321050000000007     47.261324999999999
H      51.280550000000005     50.421450000000000     50.659935000000004
H      47.073850000000007     49.148050000000005     47.952185000000000
H      50.985749999999996     49.284550000000003     48.850515000000001
H      48.825150000000008     49.185650000000003     49.466535000000000
H      47.256650000000008     47.320950000000003     45.886804999999995
H      51.513350000000003     49.974049999999998     47.541524999999993
H      47.664450000000002     47.328250000000004     47.707184999999996
H      49.883250000000004     47.500250000000001     48.197355000000002
H      45.638649999999998     45.719749999999998     49.091524999999990
H      48.787850000000006     48.959049999999998     46.760534999999997
H      44.015150000000006     48.413850000000004     48.561295000000001
H      44.559250000000006     44.849350000000001     48.114084999999996
H      50.962450000000004     51.354149999999997     49.263275000000007
H      45.947050000000004     47.813549999999999     49.335084999999992
H      44.102050000000006     46.648150000000001     48.823984999999993
H      49.300950000000000     47.122450000000001     45.874175000000001
N      44.833650000000006     47.750250000000001     48.462054999999992
O      44.497950000000003     45.312850000000005     49.333095000000000
O      51.718850000000003     51.252950000000006     50.392134999999996
O      48.467650000000006     49.562950000000008     48.034205000000000
O      48.549750000000003     47.926650000000002     45.777544999999996
O      51.984849999999994     50.337949999999999     48.869934999999998
O      51.819649999999996     49.301349999999992     46.506174999999999
O      49.758250000000004     48.651150000000008     49.091265000000000
O      47.204149999999998     47.951650000000001     48.622394999999997
O      50.598849999999999     47.255150000000000     47.069854999999990
O      45.391249999999999     44.645850000000003     46.867244999999997
O      46.290050000000008     46.366849999999999     45.340064999999996
