6

C      47.626150000000003     47.441749999999999     48.248699999999999
C      48.143749999999997     48.626749999999994     47.775199999999998
H      48.055950000000010     46.919750000000001     49.073099999999997
H      47.031649999999999     46.793749999999996     47.647999999999996
H      47.674350000000004     49.073649999999994     46.926900000000003
H      48.968350000000001     49.206250000000004     48.234499999999997
