22

C      47.409599999999998     47.582549999999998     50.120599999999989
C      47.657299999999999     46.228450000000002     49.434699999999999
C      48.573800000000013     48.679150000000000     49.527299999999997
C      47.159400000000012     46.427250000000008     47.765699999999995
C      48.496800000000000     48.855750000000008     47.947199999999995
C      47.746700000000011     47.636950000000006     47.296900000000001
C      49.259000000000007     49.506250000000001     46.969099999999997
C      47.075700000000005     48.894349999999996     47.857199999999999
C      49.091700000000010     48.659349999999996     45.851599999999998
C      48.026600000000009     47.676150000000000     45.875899999999994
H      46.452100000000009     47.996649999999995     50.091899999999995
H      47.822300000000006     47.501449999999998     51.234800000000000
H      48.762400000000007     46.098750000000003     49.687199999999997
H      46.805100000000003     45.688350000000007     49.685099999999998
H      49.660700000000013     48.546349999999997     49.996299999999998
H      48.201500000000003     49.546849999999999     50.134899999999988
H      46.050300000000000     46.660649999999997     47.512799999999999
H      47.594700000000010     45.444049999999997     47.265400000000000
H      49.949700000000000     50.555950000000003     47.390599999999999
H      46.152000000000008     49.230550000000001     47.848499999999994
H      49.556100000000008     48.671349999999997     44.765200000000000
H      47.751800000000010     46.862950000000005     45.171799999999998
