21

C      49.816743999999993     46.320449999999987     48.769049999999993
C      50.175815000000000     47.890049999999988     48.453849999999989
C      48.764195000000001     46.018149999999999     47.535749999999993
C      48.453894999999996     48.494450000000001     46.778250000000000
C      47.853595000000020     47.389249999999990     47.461849999999998
C      48.653294999999986     48.338049999999996     48.181849999999997
C      46.461795000000009     47.471149999999994     47.973149999999990
C      48.031695000000028     49.606650000000002     48.954349999999991
C      45.903294999999993     48.455849999999998     48.804249999999996
C      46.698195000000013     49.764750000000006     49.027249999999995
H      50.831864999999993     45.954850000000000     48.756349999999998
H      49.244807999999999     46.277749999999997     49.586649999999992
H      50.649254999999997     48.357250000000008     49.346949999999993
H      50.970705000000009     48.002949999999998     47.599049999999991
H      49.244399000000001     46.028449999999999     46.478949999999998
H      48.018795000000026     45.233750000000001     47.852549999999994
H      47.772494999999992     49.169549999999994     46.348849999999999
H      45.973795000000010     46.601650000000006     47.460549999999998
H      48.768495000000016     50.062950000000001     49.651150000000001
H      45.029294999999991     48.286949999999990     49.308349999999990
H      46.466695000000001     50.766249999999999     49.513449999999992
