22

C      48.039514999999987     50.219739999999987     49.706799999999987
C      49.179406000000014     49.061059999999998     50.044300000000000
C      46.856814999999997     49.693049999999999     48.883100000000006
C      49.344335000000001     47.919989999999999     49.150399999999998
C      47.031314999999992     48.675159999999998     47.761199999999995
C      48.101415000000003     47.759599999999999     48.294999999999995
C      46.498215000000002     48.415849999999999     46.451400000000000
C      48.328215000000000     46.430479999999996     47.755100000000006
C      46.796414999999996     47.034900000000000     46.004299999999994
C      47.449614999999994     46.060629999999996     46.706799999999994
H      47.606414999999998     50.901509999999995     50.403699999999994
H      48.447441800000007     51.081610000000005     49.113800000000005
H      48.543218000000010     48.514139999999998     50.807200000000002
H      50.217285000000004     49.378819999999997     50.327599999999997
H      46.434614999999994     50.667110000000001     48.554899999999996
H      45.806915000000004     49.535189999999993     49.429200000000002
H      49.362872000000010     46.928590000000000     49.815199999999997
H      50.190404999999998     47.904709999999994     48.470000000000006
H      45.782714999999996     49.034050000000001     46.079900000000002
H      49.056298000000005     45.764669999999995     48.238300000000002
H      46.461514999999991     46.541059999999995     45.192799999999998
H      47.316614999999999     44.918389999999995     46.535900000000005
