121

C      43.705749999999995     44.054549999999992     51.842699999999994
C      41.838649999999994     49.119949999999996     47.722000000000001
C      42.797750000000001     48.118649999999995     48.556300000000000
C      49.680550000000004     51.297049999999999     44.338799999999999
C      42.549050000000001     50.219450000000002     46.956299999999999
C      44.104049999999994     47.723750000000003     48.025399999999998
C      48.301049999999996     51.465250000000005     44.720700000000001
C      48.408949999999997     47.854549999999996     45.362900000000003
C      46.980849999999997     47.637450000000008     45.908299999999997
C      44.849250000000005     50.449649999999998     45.596200000000003
C      48.676750000000006     49.338549999999998     44.865200000000002
C      43.876550000000002     49.824149999999996     46.421999999999997
C      47.490149999999993     50.249350000000000     44.899700000000003
C      44.633549999999993     48.527549999999998     46.874000000000002
C      45.828949999999999     48.508350000000000     46.049500000000002
C      46.143449999999994     49.704650000000001     45.384100000000004
C      43.939950000000003     45.742849999999997     49.905099999999997
C      44.353749999999998     46.348949999999995     48.614400000000003
C      40.317850000000000     49.328949999999999     48.116399999999999
C      39.599049999999998     48.083250000000000     48.067799999999998
C      39.861349999999995     48.638649999999998     49.424900000000001
C      41.038649999999997     47.993549999999992     50.555600000000005
C      42.060749999999992     47.289650000000002     49.578399999999995
C      42.576649999999994     46.151249999999997     50.273000000000003
C      41.915550000000003     51.126349999999995     46.010300000000001
C      40.466950000000004     51.415849999999999     46.360199999999999
C      39.572449999999996     50.193050000000007     47.048099999999998
C      45.272249999999993     45.740349999999999     47.769100000000002
C      47.372350000000004     46.565449999999991     46.985599999999998
C      44.407149999999994     44.617349999999995     50.711599999999997
C      38.324350000000003     48.748650000000005     50.077599999999997
C      52.568249999999999     48.786949999999997     41.667700000000004
C      53.600649999999995     49.245550000000001     42.812800000000003
C      53.552649999999993     48.881250000000001     46.701500000000003
C      53.098350000000003     48.639549999999993     44.125200000000000
C      55.549550000000004     48.984349999999999     44.801600000000001
C      54.091249999999995     48.789049999999996     45.163800000000002
C      56.263950000000001     48.512650000000001     43.640500000000003
C      56.353850000000001     49.769349999999996     45.709400000000002
C      57.552010000000003     49.303850000000004     43.697699999999998
C      57.361546000000004     50.257349999999995     44.806600000000003
C      52.832550000000005     44.150050000000000     43.335500000000003
C      51.972550000000005     45.203650000000003     42.732700000000001
C      52.584550000000000     43.639249999999997     44.780999999999999
C      51.259049999999995     46.257150000000003     43.813400000000001
C      52.413450000000005     44.993350000000000     45.709499999999998
C      51.858349999999994     46.198850000000000     45.036600000000000
C      52.949249999999999     45.078349999999993     47.002099999999999
C      51.879150000000003     47.406050000000000     45.960700000000003
C      53.442249999999994     46.314749999999997     47.568800000000003
C      52.810549999999999     47.565049999999999     47.014800000000001
C      42.330049999999993     48.668650000000007     53.860999999999997
C      42.610350000000004     48.906550000000003     52.241300000000003
C      41.642450000000004     49.796749999999996     54.392299999999999
C      41.542949999999998     49.309350000000002     51.179399999999994
C      40.492449999999998     50.411250000000003     53.251799999999996
C      40.627050000000004     50.380249999999997     51.909699999999994
C      39.685849999999995     51.148649999999996     54.144100000000002
C      39.862149999999993     51.536449999999995     51.307600000000001
C      39.054549999999999     52.310049999999997     53.435499999999998
C      38.875149999999998     52.509450000000001     51.968700000000005
H      44.326950000000004     43.414749999999998     52.530899999999995
H      50.404249999999998     52.171950000000002     44.160000000000004
H      47.911449999999995     52.240749999999998     45.099800000000002
H      49.201749999999997     47.401649999999997     46.055100000000003
H      45.119149999999998     51.437450000000005     45.322699999999998
H      40.209949999999999     47.534450000000000     51.172900000000006
H      41.633149999999993     48.560350000000000     46.482799999999997
H      41.653349999999996     46.011249999999997     50.949000000000005
H      42.572349999999993     52.093250000000005     45.908999999999999
H      42.013249999999992     50.700650000000003     44.923499999999997
H      40.376150000000003     52.062649999999998     47.203899999999997
H      40.055950000000003     51.678850000000004     45.352800000000002
H      38.647249999999993     50.406349999999996     47.426499999999997
H      39.109149999999993     49.599849999999996     46.191800000000001
H      48.497949999999996     46.214649999999999     46.702199999999998
H      47.697049999999997     46.883949999999992     47.975700000000003
H      42.662950000000002     44.223149999999997     52.111100000000000
H      45.460050000000003     44.432949999999998     50.531500000000001
H      37.676150000000000     49.572650000000003     49.506400000000006
H      38.242449999999998     48.896349999999991     51.110000000000007
H      37.515549999999998     48.061550000000004     50.148900000000005
H      52.455649999999999     47.609549999999992     41.460900000000002
H      51.639949999999992     49.067050000000002     42.023600000000002
H      53.303149999999995     50.291950000000007     43.314999999999998
H      52.734749999999998     49.335749999999997     40.614500000000000
H      52.921349999999997     49.862950000000005     46.833700000000000
H      54.353649999999995     49.067950000000003     47.520000000000003
H      52.087049999999998     48.827850000000005     44.462400000000002
H      54.572449999999996     49.521250000000002     42.394800000000004
H      56.024849999999994     47.799250000000008     42.777000000000001
H      56.086350000000003     50.172750000000001     46.750100000000003
H      58.484450000000002     49.235750000000003     43.130200000000002
H      58.159670000000006     50.851649999999999     45.110399999999998
H      39.912649999999992     46.557049999999997     46.649200000000000
H      53.881350000000005     44.135250000000006     42.975800000000000
H      52.805450000000000     43.239449999999998     42.710200000000000
H      51.199549999999995     47.295250000000003     43.444899999999997
H      51.234149999999993     44.736550000000001     42.137500000000003
H      51.749149999999993     43.108150000000002     45.150399999999998
H      53.197949999999999     42.835550000000005     45.052799999999998
H      52.438749999999992     45.667149999999999     41.926400000000001
H      53.150449999999999     44.151350000000001     47.545499999999997
H      51.115149999999993     48.116350000000004     45.745800000000003
H      53.902149999999999     46.446549999999995     48.691600000000001
H      52.157350000000001     47.844549999999991     47.969200000000001
H      41.699750000000002     47.711449999999999     53.902899999999995
H      43.212550000000000     48.491650000000000     54.374000000000002
H      42.837449999999997     47.877749999999999     51.886400000000002
H      43.560949999999998     49.586549999999995     52.206399999999995
H      40.984450000000002     49.526350000000001     55.385500000000000
H      42.165050000000001     50.711049999999993     54.605100000000000
H      42.157649999999997     49.815350000000002     50.424100000000003
H      39.755450000000003     51.276750000000000     55.336499999999994
H      39.564649999999993     51.575550000000000     50.359500000000004
H      38.792449999999995     52.925649999999997     54.327499999999993
H      38.080049999999993     53.164449999999995     51.417600000000000
N      49.828150000000001     49.958849999999998     44.545600000000000
O      46.255549999999992     45.413750000000000     47.093100000000000
O      39.403449999999999     46.881850000000000     47.636299999999999
S      49.128449999999994     46.123950000000001     44.156199999999998
