22

C      47.947749999999999     45.496499999999997     49.478949999999998
C      48.632249999999999     45.589300000000001     48.171650000000000
C      46.917749999999998     46.572600000000001     49.328550000000007
C      48.397449999999992     46.527500000000011     46.957149999999999
C      47.125650000000007     48.185700000000004     48.710650000000001
C      47.893649999999994     47.975800000000000     47.543949999999995
C      46.949150000000003     49.437000000000005     49.276350000000008
C      48.371250000000003     49.139600000000009     46.781850000000006
C      47.795450000000002     50.498100000000001     48.631150000000005
C      48.375050000000002     50.496600000000001     47.387450000000001
H      48.812349999999995     45.773000000000003     50.089449999999999
H      47.421049999999994     44.524999999999999     49.938550000000006
H      48.780349999999999     44.569900000000004     47.864850000000004
H      49.756249999999994     45.490700000000004     48.167450000000002
H      46.573949999999996     46.893999999999998     50.280349999999999
H      46.243750000000006     45.948699999999995     48.898750000000007
H      49.439449999999994     46.663200000000003     46.308750000000003
H      47.809150000000002     46.110499999999995     46.168949999999995
H      46.444249999999997     49.577800000000003     50.282449999999997
H      48.737449999999995     48.911900000000003     45.717550000000003
H      47.954149999999998     51.475000000000001     49.045550000000006
H      49.070850000000007     51.211700000000000     47.031549999999996
