22

C      47.439849999999993     50.409399999999991     49.043899999999994
C      48.612050000000004     49.890500000000003     49.801799999999986
C      46.514550000000007     49.112499999999997     49.048599999999993
C      49.512850000000007     49.054800000000000     48.945700000000002
C      47.250850000000007     48.152000000000001     48.013000000000005
C      48.690050000000006     48.009900000000002     48.211399999999998
C      46.772449999999999     47.317200000000000     47.004199999999997
C      49.313549999999999     46.785300000000007     47.842799999999997
C      47.256450000000008     46.124099999999999     46.210099999999997
C      48.440050000000006     45.930899999999994     47.008899999999997
H      47.520850000000003     50.656199999999998     48.064599999999999
H      47.064450000000001     51.118700000000004     49.785699999999991
H      49.003049999999995     50.681700000000006     50.392299999999992
H      48.335050000000003     49.242900000000006     50.697199999999995
H      46.519650000000006     48.798000000000002     50.033799999999999
H      45.520750000000000     49.335700000000003     48.737300000000005
H      50.479250000000000     48.614100000000008     49.525499999999994
H      50.100950000000005     49.453299999999999     48.082200000000000
H      45.818649999999998     47.238900000000001     46.697099999999992
H      50.290950000000002     46.244399999999999     48.162700000000001
H      46.807449999999996     45.738900000000001     45.302800000000005
H      48.600050000000003     44.881299999999996     46.757000000000005
