17

C      47.374049999999997     50.146500000000003     47.649249999999995
C      49.295049999999996     48.547500000000007     49.062549999999995
C      47.962150000000001     48.763500000000001     48.281950000000002
C      49.118149999999993     48.110700000000001     47.503250000000001
C      46.988449999999993     47.725800000000000     48.360149999999997
C      48.995349999999995     47.036800000000007     46.674549999999996
C      47.068049999999992     46.378599999999999     47.742950000000000
C      48.067950000000003     45.896500000000010     46.869850000000000
H      46.469450000000002     50.573600000000006     47.946149999999996
H      47.037550000000003     49.664600000000000     46.587150000000001
H      48.064550000000004     50.800300000000000     48.212249999999997
H      49.548849999999995     47.778800000000011     50.185049999999997
H      49.873749999999994     49.415900000000001     49.040450000000000
H      46.126250000000006     48.042500000000011     48.845949999999995
H      49.587449999999997     46.660800000000002     45.814950000000003
H      46.213450000000002     45.768400000000007     48.139649999999996
H      47.838850000000001     45.199700000000000     46.096449999999997
