6

C      48.624400000000001     47.956649999999996     48.306099999999994
C      47.400300000000001     48.171049999999994     47.620899999999992
H      49.010300000000001     48.434549999999987     49.341300000000004
H      49.414000000000001     47.247450000000001     47.810400000000001
H      46.585999999999999     48.752549999999999     48.006500000000003
H      47.423600000000008     48.289449999999988     46.658699999999996
