25

C      50.066049999999990     48.203850000000003     46.361949999999986
C      48.660849999999996     49.159549999999996     50.191149999999993
C      48.492749999999994     50.008349999999993     48.871150000000000
C      49.301649999999995     47.706850000000003     49.785849999999996
C      47.797049999999999     48.788550000000001     47.937950000000001
C      48.483950000000000     47.294449999999998     48.557149999999993
C      48.646749999999997     47.778750000000002     47.228949999999998
C      47.314949999999996     46.316550000000007     48.610849999999999
C      47.846249999999998     47.354150000000004     46.106549999999999
C      46.174149999999997     46.474350000000001     47.630049999999997
C      46.573949999999996     46.738150000000005     46.231549999999999
H      50.206449999999997     47.867150000000009     45.294349999999994
H      50.852550000000001     48.174750000000003     47.065349999999995
H      50.080349999999989     49.262650000000008     46.065749999999994
H      47.494349999999997     49.121549999999999     50.845749999999995
H      49.585349999999998     49.707650000000001     50.870649999999998
H      48.001849999999997     50.753450000000001     49.372649999999993
H      49.193649999999998     50.757049999999992     48.551850000000002
H      48.926449999999996     47.213750000000005     50.801950000000005
H      50.302150000000005     48.123850000000004     49.535650000000004
H      46.841949999999997     48.873850000000004     47.445250000000001
H      47.221349999999994     45.242950000000008     49.097750000000005
H      48.316349999999993     47.341549999999998     45.129350000000002
H      45.147449999999999     46.278450000000007     47.781250000000000
H      45.954049999999995     46.684449999999998     45.308750000000003
