22

C      50.574649999999991     48.021699999999996     48.031199999999998
C      50.232149999999997     49.262200000000000     47.249999999999993
C      49.412549999999996     46.805900000000001     48.086999999999996
C      49.057549999999999     48.853800000000000     46.456700000000005
C      47.887949999999996     47.198199999999993     48.301200000000001
C      47.775749999999995     48.282299999999999     47.413800000000002
C      46.848749999999995     46.714599999999997     49.270699999999998
C      46.515049999999995     48.850199999999994     47.396200000000000
C      45.768650000000001     47.585199999999993     49.463100000000004
C      45.545949999999998     48.558299999999996     48.352299999999993
H      51.073449999999994     47.961599999999997     49.030799999999992
H      51.434750000000001     47.731000000000002     47.537699999999994
H      51.088449999999987     49.579599999999992     46.661600000000000
H      49.788049999999998     50.023800000000001     47.745100000000001
H      49.526149999999994     46.245500000000000     47.228599999999993
H      49.681949999999993     45.984000000000002     48.796100000000003
H      49.521749999999997     48.282199999999996     45.563700000000004
H      48.860649999999993     49.641299999999994     45.853999999999992
H      46.764949999999992     45.976199999999999     50.082400000000000
H      46.273949999999992     49.599100000000000     46.576400000000000
H      45.252449999999996     47.187999999999995     50.436299999999996
H      44.565249999999999     48.753999999999998     48.267900000000004
