5

C      48.147299999999987     48.258599999999994     47.996609999999997
H      48.618499999999997     48.200699999999998     48.910079999999994
H      47.215999999999994     48.785600000000002     47.838740000000001
H      48.784000000000006     48.422299999999993     47.089920000000006
H      47.659499999999994     47.214399999999998     47.953390000000006
