49

C      47.409849999999992     48.546849999999992     47.770459999999993
C      47.871150000000007     49.810850000000002     48.441760000000002
C      45.775950000000002     52.057950000000005     45.100059999999999
C      46.343150000000001     48.756349999999998     46.835460000000005
C      47.965550000000000     51.177950000000010     47.773760000000003
C      45.333950000000009     50.650050000000007     45.199560000000005
C      45.943050000000007     52.568950000000001     46.592560000000006
C      46.139850000000003     50.039749999999998     46.282660000000000
C      46.743749999999999     51.302650000000000     47.078860000000006
C      48.002350000000000     47.309449999999998     48.548659999999998
C      48.804750000000006     47.250050000000002     49.738660000000003
C      48.969150000000006     48.537449999999993     50.534860000000002
C      48.698050000000002     49.665350000000004     49.638760000000005
C      47.614849999999997     46.010049999999993     47.947959999999995
C      50.279649999999997     43.237350000000006     48.655860000000004
C      49.885349999999995     44.657550000000001     48.798360000000002
C      49.332150000000006     45.840050000000005     49.657560000000004
C      45.570950000000003     47.502650000000003     46.727960000000003
C      46.397849999999998     46.076449999999994     46.998060000000002
C      48.323050000000002     51.707650000000001     46.413260000000001
C      48.455649999999999     52.107750000000010     48.927760000000006
C      49.393949999999997     51.039350000000013     49.839860000000002
C      49.603850000000001     48.186149999999998     51.782060000000001
C      50.277750000000005     46.856150000000000     51.785760000000003
C      49.713249999999995     45.515749999999997     51.141760000000005
C      48.583549999999995     45.039649999999995     48.510159999999999
C      45.734650000000009     52.937049999999999     43.984160000000003
H      44.736650000000004     50.229249999999993     44.393960000000000
H      46.512750000000004     53.597450000000009     46.418260000000004
H      44.974049999999998     52.491650000000007     46.913160000000005
H      45.072550000000000     47.356350000000006     47.715860000000006
H      44.800550000000008     47.573449999999994     45.967960000000005
H      46.193249999999999     44.982550000000003     46.496660000000006
H      47.105250000000005     46.280249999999995     46.089160000000007
H      48.323950000000004     52.698849999999993     46.095460000000003
H      48.808150000000005     50.820350000000005     45.894260000000003
H      47.509750000000004     52.251750000000001     49.291259999999994
H      49.018250000000002     53.043350000000004     48.800960000000003
H      49.381850000000007     51.595550000000003     50.889760000000010
H      50.501449999999998     51.289550000000006     49.533259999999999
H      50.397550000000003     48.840850000000003     52.014560000000003
H      48.922850000000004     48.002750000000006     53.036159999999995
H      50.577149999999996     46.648650000000004     52.879159999999999
H      51.263349999999996     47.033950000000004     51.375460000000004
H      48.890850000000007     45.088149999999999     51.609660000000005
H      50.548850000000009     44.944350000000000     51.037060000000004
H      45.403050000000000     52.769450000000006     42.963840000000005
H      45.888750000000009     53.858350000000002     44.090360000000004
O      50.494450000000008     42.141649999999998     48.733560000000011
