6

C      47.290349999999997     47.523199999999996     48.257049999999992
C      48.464950000000002     48.427499999999995     47.860749999999996
H      47.512749999999997     46.571500000000000     48.273849999999996
H      46.453749999999999     47.668100000000010     47.720550000000003
H      49.546250000000001     48.225200000000001     48.279449999999997
H      48.418550000000003     49.428500000000000     47.930850000000007
