22

C      48.571399999999983     45.292299999999983     48.730029999999985
C      47.089499999999994     45.280099999999990     48.379170000000002
C      49.103599999999993     46.746000000000009     49.163330000000002
C      46.767999999999994     46.597000000000008     47.590479999999999
C      48.564099999999989     48.113200000000006     48.527450000000002
C      47.421199999999992     47.976500000000001     47.639809999999997
C      49.157599999999995     49.406700000000001     48.647369999999995
C      47.012299999999989     49.102000000000004     46.974029999999999
C      48.783299999999990     50.533199999999994     47.806470000000004
C      47.765399999999993     50.382000000000005     46.759289999999993
H      49.298399999999994     44.700800000000001     48.055120000000002
H      48.890099999999997     44.690399999999997     49.748940000000005
H      46.601899999999993     45.493700000000004     49.267930000000007
H      46.583599999999997     44.453199999999995     48.205839999999995
H      48.700399999999995     46.555499999999995     50.082400000000007
H      50.337499999999999     46.940500000000000     49.511859999999999
H      46.933999999999990     46.061199999999999     46.627020000000002
H      45.662500000000001     46.510900000000007     47.412160000000000
H      50.100800000000000     49.376400000000004     49.111120000000000
H      46.145999999999994     48.929000000000002     46.178449999999998
H      49.397100000000002     51.546800000000005     47.517839999999993
H      47.733799999999995     51.022800000000004     45.917599999999993
