22

C      50.484106049999987     47.875895999999997     48.048000000000002
C      49.974106049999989     48.500805000000000     49.500200000000007
C      49.634106050000000     47.950991000000002     46.825000000000003
C      48.803906049999995     47.426128000000006     49.856999999999999
C      48.224306049999996     47.791536000000008     47.184600000000003
C      47.797706050000002     47.546922000000009     48.584500000000006
C      47.108806049999998     47.979835000000008     46.307699999999997
C      46.586406049999994     47.983924000000002     49.156700000000001
C      45.787406050000001     48.084002999999996     46.730199999999996
C      45.400906049999989     47.910956999999996     48.177599999999998
H      50.277106050000000     46.741165000000024     48.217500000000001
H      51.509493950000007     48.155629000000005     47.942999999999998
H      49.810506050000001     49.703834999999998     49.485500000000002
H      50.590706049999994     48.478724999999997     50.311900000000009
H      49.833806049999993     47.243965599999996     45.922499999999999
H      49.937606049999999     48.587505000000007     45.900599999999997
H      48.339506049999997     47.766299000000004     50.692499999999995
H      49.236206049999993     46.296165000000002     50.030999999999992
H      47.452606050000000     47.815622000000005     45.307500000000005
H      46.588606049999996     47.950811999999999     50.204999999999998
H      45.082706049999999     47.789291000000006     45.918000000000006
H      44.490506049999993     48.319384999999997     48.658199999999994
