51

C      51.063299999999991     46.114849999999990     48.610444999999999
C      43.617999999999995     52.812450000000005     45.805115000000001
C      50.357500000000002     46.927349999999997     47.550354999999996
C      44.242799999999995     52.781849999999999     44.547515000000004
C      50.428399999999996     46.329050000000002     49.939785000000001
C      44.243099999999998     52.074149999999996     46.951535000000007
C      49.241000000000000     47.821649999999998     47.581734999999995
C      45.463399999999993     51.954650000000008     44.463994999999997
C      48.523899999999998     47.370550000000001     51.415385000000001
C      47.526699999999991     48.377249999999997     51.643685000000005
C      46.024199999999993     49.985949999999995     50.490984999999995
C      46.930799999999991     49.636950000000006     48.079385000000002
C      49.245999999999995     47.186650000000007     50.105784999999997
C      45.952599999999990     51.034749999999995     45.372545000000002
C      47.064099999999996     48.934050000000006     50.444984999999988
C      45.338299999999990     50.663350000000001     49.483885000000001
C      48.620300000000000     48.004550000000002     48.968805000000003
C      45.385899999999992     51.339250000000000     46.778874999999999
C      47.503699999999995     48.683150000000005     49.095545000000001
C      45.770299999999992     50.651850000000003     48.100605000000002
C      48.630299999999991     48.533850000000008     46.478515000000002
C      47.246699999999990     49.099950000000000     46.677054999999996
C      52.231899999999996     45.382250000000006     47.986715000000004
C      52.681199999999990     45.481950000000005     46.475575000000006
C      52.009399999999999     46.266650000000006     45.453775000000007
C      50.881199999999993     46.954850000000000     46.170034999999999
C      50.465800000000002     47.758550000000007     45.033465000000007
C      49.203099999999992     48.454150000000006     45.155775000000006
C      50.832799999999992     45.826950000000004     51.119185000000002
C      52.509199999999993     44.040349999999997     49.892184999999998
C      52.919100000000000     44.333649999999999     48.559804999999997
C      51.857500000000002     44.820550000000004     50.961284999999990
H      42.465299999999999     53.102449999999997     46.170064999999994
H      43.624099999999999     53.124050000000004     43.715554999999995
H      43.449099999999994     52.121649999999995     47.827624999999998
H      45.770699999999991     51.869149999999998     43.461915000000005
H      46.830799999999996     48.776750000000000     52.538084999999995
H      45.638099999999994     50.274350000000005     51.530985000000001
H      46.245800000000003     48.498849999999997     46.341335000000001
H      53.534700000000001     44.910149999999994     46.446465000000003
H      52.218099999999993     46.339149999999997     44.482725000000002
H      50.898600000000002     47.350649999999995     44.141054999999994
H      48.684599999999989     49.112150000000007     44.383255000000005
H      50.177300000000002     45.842750000000002     52.057284999999993
H      52.944599999999994     42.875949999999996     49.812385000000006
H      53.460700000000003     43.761749999999999     47.681944999999999
H      51.908299999999997     43.958450000000006     51.656084999999990
H      47.396599999999992     49.734450000000002     44.445835000000002
H      44.438499999999991     51.324050000000007     49.775784999999999
N      46.893099999999990     50.166249999999998     45.285325000000000
O      48.824199999999990     46.813849999999995     52.493684999999999
