22

C      48.734499999999997     46.953099999999992     45.715199999999989
C      47.930200000000006     48.365000000000002     45.486599999999996
C      49.067799999999998     46.562800000000003     47.270799999999994
C      46.871200000000009     48.563799999999993     46.470900000000000
C      48.659900000000000     47.880800000000001     48.209699999999998
C      47.374500000000005     48.760799999999996     47.919199999999989
C      48.837800000000009     47.490099999999991     49.551000000000002
C      46.648699999999998     49.317799999999998     49.063599999999994
C      48.156200000000005     48.136800000000001     50.632300000000001
C      47.226999999999997     49.262899999999995     50.349199999999996
H      49.545300000000005     46.925899999999999     45.031099999999995
H      48.150900000000000     46.136200000000002     45.404699999999998
H      47.527600000000000     48.180299999999995     44.383899999999997
H      48.702300000000001     49.358100000000000     45.574199999999998
H      48.334099999999999     45.812300000000000     47.537999999999997
H      50.061100000000003     46.370399999999997     47.235099999999996
H      46.480600000000003     49.597500000000004     46.502200000000002
H      45.938899999999997     47.928900000000006     46.353099999999998
H      49.463600000000007     46.632399999999997     49.790599999999998
H      46.164800000000007     50.187700000000000     48.699900000000000
H      48.440300000000001     48.152499999999996     51.616100000000003
H      46.605100000000000     49.703700000000005     51.257599999999996
