6

C      48.152499999999989     48.393199999999993     47.490149999999986
C      48.001300000000001     47.374099999999999     48.386250000000004
H      47.095299999999995     48.188800000000001     46.903750000000002
H      48.776899999999998     49.337699999999998     47.053150000000002
H      48.904700000000005     47.121499999999997     49.096249999999998
H      47.156900000000007     46.662300000000002     48.270150000000001
