22

C      46.073049999999988     47.359349999999999     48.905549999999998
C      45.793349999999997     48.735050000000001     49.027749999999997
C      47.708849999999998     48.037549999999996     46.344149999999999
C      46.335449999999994     49.682150000000007     47.842849999999999
C      47.514949999999999     47.284150000000004     48.139049999999997
C      47.520649999999989     48.625550000000004     47.579350000000005
C      48.822749999999999     46.402950000000004     48.375050000000002
C      49.009549999999997     49.047250000000005     47.767949999999999
C      50.013749999999995     46.913250000000005     47.936750000000004
C      50.257249999999999     48.339850000000006     47.734049999999996
H      45.191249999999997     46.397450000000006     48.811149999999998
H      46.247450000000001     47.360550000000003     50.126649999999998
H      46.298349999999999     49.038350000000001     49.957850000000008
H      44.639949999999999     49.032750000000007     49.293850000000006
H      48.714749999999995     48.195650000000001     46.088350000000005
H      46.926449999999996     48.642150000000001     45.873350000000002
H      46.691249999999997     50.671549999999996     48.234250000000003
H      45.736049999999992     49.979050000000001     46.923550000000006
H      48.861149999999995     45.328450000000004     48.853250000000003
H      48.926749999999998     50.088150000000013     47.504249999999999
H      50.799250000000001     46.218950000000007     47.852850000000004
H      51.360050000000001     48.701549999999997     47.643650000000008
