22

C      49.199749999999995     47.733264999999996     46.392049999999998
C      49.634249999999994     47.891265000000004     48.129849999999990
C      48.792149999999992     49.143515000000008     45.576850000000007
C      48.251849999999990     49.685145000000006     47.104650000000007
C      48.379649999999998     48.354292000000015     47.496549999999999
C      47.123249999999999     47.981674400000010     48.341650000000001
C      46.609749999999991     48.812937000000005     49.322550000000007
C      47.195449999999994     46.677364999999995     48.967349999999996
C      46.323650000000001     48.135497000000001     50.519150000000010
C      46.361449999999991     46.726164999999995     50.211649999999992
H      45.646950000000004     49.332655000000017     48.929450000000003
H      50.353049999999996     48.623052000000008     48.478149999999999
H      49.896949999999990     47.123564999999999     45.711650000000006
H      49.684950000000001     46.887865000000005     48.562449999999998
H      49.781149999999997     49.434184999999999     45.232550000000003
H      47.977549999999994     49.214055000000009     44.780150000000006
H      47.339550000000003     50.268635000000017     47.068750000000009
H      49.199050000000000     50.344435000000004     47.280749999999998
H      47.135249999999999     49.757045000000005     49.568849999999998
H      47.657550000000001     45.655564999999996     48.559550000000002
H      45.848249999999993     48.658810000000017     51.219849999999994
H      46.116550000000004     45.762264999999999     50.834850000000003
