36

C      50.397049999999993     51.118099999999998     46.418049999999994
C      49.987350000000006     49.616900000000001     46.340450000000004
C      48.591650000000001     49.366900000000001     46.751550000000009
C      49.333750000000009     52.044100000000000     46.069950000000006
C      49.015950000000004     50.739000000000004     46.155550000000005
C      47.583950000000002     48.588800000000006     46.058050000000009
C      49.655150000000006     53.128199999999993     45.047750000000008
C      51.045050000000003     48.784199999999998     46.036050000000003
C      48.229550000000003     44.352999999999994     50.721750000000000
C      47.181350000000009     43.179199999999994     51.161450000000002
C      47.663049999999998     45.443600000000004     49.911050000000017
C      46.804150000000007     45.168300000000002     48.856350000000006
C      45.039050000000003     46.129099999999994     47.103350000000006
C      45.716050000000010     47.416799999999995     47.009150000000005
C      46.148550000000000     46.221699999999998     47.933750000000003
C      49.393050000000002     43.704999999999998     50.350850000000008
C      49.935350000000000     42.789199999999994     51.136550000000000
C      43.888050000000007     45.720299999999995     46.366950000000003
H      50.168550000000010     52.862499999999997     43.920850000000002
H      48.919950000000000     53.784700000000001     44.819550000000007
H      50.599450000000004     53.588600000000000     45.730450000000005
H      50.664250000000010     48.134100000000004     45.144649999999999
H      52.415750000000003     49.529499999999999     46.032850000000010
H      51.228050000000010     48.524299999999997     47.115250000000017
H      48.243949999999998     44.657899999999998     51.924050000000008
H      46.808149999999998     42.343100000000007     50.636150000000001
H      47.534450000000007     42.601100000000002     52.079149999999998
H      46.134150000000005     43.733100000000007     51.140349999999998
H      47.916350000000008     46.699399999999997     49.992350000000002
H      46.618049999999997     44.145399999999995     48.544849999999997
H      44.954149999999998     48.163499999999999     47.349950000000007
H      50.101050000000001     43.438199999999995     49.409649999999999
H      43.584249999999997     44.809600000000003     46.605250000000012
H      43.834850000000003     46.712599999999995     45.682850000000002
O      46.586750000000009     48.141199999999998     45.592849999999999
O      50.749049999999997     42.215299999999999     51.585750000000004
