25

C      46.791750000000000     49.760700000000000     46.151899999999998
C      49.007450000000006     47.128200000000000     50.475300000000004
C      47.909949999999995     48.344000000000001     50.280300000000011
C      49.013350000000003     46.313899999999997     49.070800000000006
C      48.454149999999998     48.891300000000008     48.823399999999992
C      48.415149999999997     46.723900000000008     47.644300000000001
C      48.076149999999998     48.133699999999997     47.502099999999999
C      47.928650000000005     45.688899999999997     46.845699999999994
C      47.253950000000003     48.328899999999997     46.275800000000004
C      47.309449999999998     45.941700000000004     45.520499999999998
C      46.877049999999997     47.257399999999997     45.330200000000005
H      46.087249999999997     51.235099999999996     47.081400000000002
H      49.912750000000003     47.511900000000004     50.698900000000009
H      48.617750000000001     46.532699999999998     51.447199999999995
H      47.908450000000002     49.100000000000001     51.042400000000001
H      47.071849999999998     47.805500000000002     49.979399999999998
H      49.776150000000001     45.571000000000005     48.763099999999994
H      48.594949999999997     45.419900000000005     49.524200000000008
H      48.936650000000000     49.829900000000002     48.543900000000008
H      49.548649999999995     48.349700000000006     48.579399999999993
H      47.993750000000006     44.764900000000004     47.388899999999992
H      46.927850000000007     50.371800000000000     45.257199999999997
H      46.899950000000004     45.095800000000004     44.867500000000007
H      46.258550000000000     47.916100000000007     44.552800000000005
O      46.429950000000005     50.288900000000005     47.271799999999999
