34

C      47.310869999999987     47.359949999999998     47.932624999999994
C      48.613069999999993     47.666160000000005     48.357725000000002
C      47.603170000000006     52.247619999999998     48.969125000000005
C      46.414169999999999     48.494560000000007     47.826225000000001
C      49.162670000000006     48.954650000000001     48.820525000000004
C      46.508269999999996     51.194170000000000     48.578125000000000
C      48.612470000000002     51.541919999999990     49.433225000000000
C      46.944369999999992     49.855320000000006     48.171724999999995
C      48.301670000000001     50.108619999999988     48.814125000000004
C      46.841669999999993     46.107910000000004     47.654425000000003
C      47.516570000000002     44.875889999999998     47.914025000000002
C      48.856169999999992     45.027460000000005     48.558425000000000
C      49.464069999999992     46.415520000000001     48.362425000000002
C      45.441770000000005     45.977940000000004     47.052154999999999
C      44.953369999999993     44.640020000000007     46.747754999999998
C      45.955069999999992     43.695580000000007     46.713645000000000
C      47.057169999999999     43.578559999999996     47.675525000000000
C      44.677570000000003     47.255669999999995     46.848044999999999
C      44.981470000000002     48.544939999999997     47.484665000000000
C      50.102869999999996     44.353880000000004     48.926524999999998
C      51.259970000000010     44.935969999999998     48.488025000000000
C      50.863089000000009     46.391909999999996     48.236225000000005
H      47.471270000000004     53.434020000000004     48.923825000000008
H      50.063270000000003     49.004459999999995     49.358024999999998
H      45.286770000000004     51.337519999999998     48.859324999999998
H      49.536569999999998     51.782219999999995     49.805025000000001
H      43.848370000000003     44.527040000000000     46.249495000000003
H      45.748069999999998     42.748040000000003     46.326025000000001
H      47.518270000000001     42.565979999999996     47.984525000000005
H      43.798969999999997     47.520089999999996     46.194974999999999
H      44.722269999999995     49.497450000000001     47.233345000000000
H      49.826970000000003     43.137829999999994     49.270925000000005
H      52.201030000000003     44.804090000000002     48.641525000000001
H      51.473030000000008     47.317869999999999     48.251424999999998
