5

C      48.031949999999995     47.927599999999991     47.894299999999994
H      48.890149999999998     48.004499999999993     47.253900000000002
H      47.998049999999999     47.128000000000000     48.746099999999998
H      47.963950000000004     48.872000000000000     48.495699999999999
H      47.109850000000002     48.136799999999994     47.261099999999999
