18

C      49.238599999999998     49.143449999999987     48.684749999999994
C      49.766300000000015     48.968849999999996     47.438850000000002
C      48.668800000000005     48.599550000000001     46.479349999999997
C      47.332200000000007     48.548649999999995     46.986449999999998
C      48.127200000000002     48.632149999999996     49.421450000000000
C      47.106600000000007     48.205749999999995     48.460149999999999
C      47.856600000000007     48.260849999999998     50.709949999999999
C      49.099600000000002     48.437649999999998     45.154949999999999
C      45.945600000000006     47.115649999999995     48.900250000000007
H      45.168700000000001     47.624949999999991     49.477150000000002
H      49.939100000000003     49.700150000000001     49.340849999999996
H      50.831299999999999     48.899649999999994     47.358750000000001
H      46.705300000000008     48.489049999999999     46.073250000000002
H      50.168700000000001     48.662949999999995     45.108249999999998
H      48.540800000000004     48.228949999999990     44.366549999999997
H      45.398200000000003     46.908549999999998     47.926150000000000
H      46.508300000000006     46.299849999999999     49.228050000000003
O      47.555800000000005     47.645449999999997     51.633450000000003
