23

C      45.159349999999996     47.670524999999991     49.678549999999994
C      46.520450000000011     48.129424999999998     50.091449999999995
C      49.272850000000005     49.269424999999998     47.523049999999998
C      46.182350000000007     47.529025000000004     48.649349999999998
C      48.701549999999997     48.241825000000006     48.183949999999996
C      47.308049999999994     48.605225000000004     48.565250000000006
C      48.539550000000006     48.314324999999997     46.414249999999996
C      49.751050000000006     47.462125000000000     48.814850000000007
C      50.705450000000006     46.758224999999996     46.658450000000002
C      50.521050000000002     46.474225000000004     48.110749999999996
C      49.716850000000008     47.568725000000001     45.838449999999995
H      45.002250000000004     46.755125000000000     50.029849999999996
H      44.455150000000003     48.527225000000001     49.428349999999995
H      46.771550000000005     48.529224999999997     51.104450000000000
H      48.655349999999999     50.299525000000003     47.508150000000001
H      50.332050000000010     49.632224999999998     47.350549999999998
H      47.008250000000004     49.617525000000001     48.234449999999995
H      46.307250000000010     46.404825000000002     48.366749999999996
H      47.603950000000005     48.157924999999999     45.992549999999994
H      49.562049999999999     47.414225000000002     49.908450000000002
H      51.544849999999997     46.048924999999997     46.287450000000007
H      51.043850000000006     45.700474999999997     48.689750000000004
H      50.343150000000001     47.222324999999998     44.895550000000000
