16

C      49.127799999999993     49.812449999999991     47.297749999999986
C      46.453200000000002     49.849049999999998     48.591749999999990
C      48.676600000000001     48.628349999999998     47.865449999999996
C      47.167899999999996     48.689749999999997     48.310649999999995
C      49.386800000000001     47.384149999999998     47.641849999999991
C      46.612199999999994     47.313049999999997     48.488749999999996
C      48.710000000000001     46.127850000000002     47.579949999999997
C      47.304699999999990     46.221049999999998     48.038150000000002
H      48.515999999999998     50.673749999999998     46.814449999999994
H      45.645699999999998     49.925849999999997     49.355850000000004
H      47.094199999999994     50.786650000000002     48.763549999999995
H      50.354300000000002     47.950550000000000     47.250450000000001
H      45.706799999999994     47.082549999999998     48.844250000000002
H      49.225199999999994     45.213349999999998     47.265549999999990
H      46.915599999999991     45.296750000000003     48.011250000000004
H      50.144599999999990     49.999949999999998     46.644149999999996
