16

C      46.322849999999988     47.796699999999987     49.276749999999993
C      47.820749999999997     46.727099999999993     50.009349999999998
C      48.153749999999995     47.738499999999995     47.572170000000000
C      47.546849999999999     47.372199999999999     48.871670000000002
C      47.354049999999994     48.751599999999996     46.883919999999996
C      49.552050000000001     47.688599999999994     46.970210000000002
C      48.078550000000000     49.142599999999995     45.700730000000000
C      49.526149999999994     48.599799999999995     45.855029999999999
H      45.476949999999995     47.814600000000006     48.449909999999996
H      45.900650000000006     47.528299999999994     50.258240000000008
H      48.326950000000004     47.286999999999999     50.921250000000001
H      48.822650000000003     46.071599999999997     49.921579999999999
H      46.277949999999997     48.757899999999999     46.989739999999998
H      50.523050000000005     47.214999999999996     47.335369999999998
H      48.010950000000001     49.928400000000003     45.078749999999999
H      50.333949999999994     49.041599999999995     45.228139999999996
