41

C      50.151499999999992     48.083799999999989     51.760849999999991
C      49.756000000000000     45.881900000000002     51.152650000000001
C      48.273800000000001     46.296400000000006     51.972450000000002
C      48.468100000000000     47.682100000000005     49.755250000000011
C      47.156999999999996     48.535299999999992     50.388950000000001
C      49.009099999999997     47.128699999999995     51.009850000000007
C      46.012400000000000     47.420599999999993     50.161149999999999
C      46.883200000000002     45.558700000000002     51.503250000000001
C      46.459499999999998     45.941599999999994     50.039450000000009
C      45.575299999999999     46.425600000000003     51.231250000000010
C      46.763500000000001     49.706999999999994     49.498650000000005
C      47.148199999999996     49.602499999999992     48.032150000000009
C      47.815700000000000     50.806699999999992     47.586649999999999
C      48.171999999999997     50.653300000000002     46.193750000000001
C      47.535199999999996     49.508600000000001     45.597150000000006
C      47.040900000000001     48.678600000000003     46.783949999999997
C      47.178199999999997     49.275300000000001     44.193550000000009
C      46.580700000000000     47.405999999999992     46.531150000000004
C      46.673800000000000     47.853799999999993     44.108750000000008
C      46.195299999999996     47.087699999999998     45.128850000000007
H      49.620699999999999     48.989599999999996     51.501150000000003
H      50.044899999999998     47.732500000000002     52.827550000000009
H      50.677500000000002     45.649599999999992     51.597349999999999
H      49.829200000000000     45.266599999999997     50.184249999999999
H      47.098100000000002     48.545699999999997     51.498049999999999
H      48.714599999999997     45.984300000000005     52.991650000000000
H      49.385500000000000     48.166100000000000     49.283350000000006
H      48.320700000000002     46.947800000000001     48.922150000000009
H      45.528199999999998     47.561399999999992     49.225850000000001
H      47.059599999999996     44.420900000000003     51.218950000000000
H      46.232900000000001     45.206999999999994     49.332650000000008
H      44.740499999999997     45.756799999999998     51.110650000000000
H      45.701700000000002     49.844799999999992     49.231349999999999
H      47.159799999999997     50.688699999999997     49.686250000000008
H      48.866799999999998     51.216099999999997     45.417549999999999
H      48.220300000000002     51.579099999999997     48.324649999999998
H      47.204000000000001     50.042000000000002     43.462750000000007
H      46.168599999999998     46.605599999999995     47.056649999999998
H      46.613000000000000     47.614400000000003     43.008350000000000
H      45.616300000000003     46.265799999999999     44.935350000000007
H      51.259500000000003     48.061199999999999     51.461850000000005
