8

C      48.036149999999999     47.562014499999989     48.907399999999996
C      47.997350000000012     48.414914500000002     47.493200000000002
H      48.925950000000000     47.786314499999996     49.316200000000002
H      47.074050000000000     46.775614499999996     49.312700000000000
H      47.206550000000007     49.041640500000007     46.850000000000001
H      48.474050000000005     49.340885500000006     47.878300000000003
H      48.428350000000009     46.659114499999994     48.990699999999997
H      48.889650000000003     48.088814499999991     46.683799999999998
