19

C      48.417599999999993     50.415149999999983     46.745599999999989
C      47.125200000000000     49.690849999999990     47.781599999999997
C      46.117500000000000     46.998950000000001     48.617099999999994
C      46.819200000000002     48.176150000000000     47.840599999999995
C      47.538000000000004     46.899650000000001     48.116000000000000
C      47.731900000000003     46.043450000000000     46.888299999999987
C      48.535999999999994     46.287649999999992     49.127599999999987
C      48.904100000000007     45.307650000000002     47.038199999999989
C      49.352100000000000     45.423549999999999     48.371499999999997
H      48.863800000000005     49.451149999999991     46.306599999999989
H      46.952300000000001     50.070149999999991     48.733399999999989
H      46.275900000000000     50.094149999999992     47.090799999999987
H      46.256900000000002     46.894649999999992     49.801800000000000
H      45.604099999999995     46.176849999999995     48.016399999999990
H      47.270199999999996     46.329549999999990     45.934500000000000
H      48.656300000000009     46.935749999999992     50.065500000000000
H      49.630299999999998     44.656849999999999     46.445099999999996
H      50.395900000000005     45.277149999999999     49.006000000000000
O      48.714199999999998     51.343150000000001     47.351299999999995
