21

C      47.694399999999987     46.755849999999995     46.633149999999986
C      47.832699999999996     45.640050000000002     49.129949999999994
C      46.951199999999993     46.349550000000001     48.018150000000006
C      49.260799999999996     46.452050000000000     49.365150000000000
C      47.701699999999995     47.744250000000001     47.878450000000001
C      48.744099999999996     47.865749999999998     48.882750000000001
C      47.148599999999995     49.014450000000004     47.355549999999994
C      49.392699999999998     49.090150000000001     49.412949999999995
C      47.624900000000004     50.196549999999995     48.028549999999996
C      48.779699999999998     50.301150000000000     48.903050000000007
H      48.812999999999995     46.442349999999998     46.333849999999998
H      47.001500000000000     46.777750000000005     45.668549999999996
H      47.265200000000000     45.087449999999997     50.047750000000008
H      47.952000000000005     44.693750000000001     48.440250000000006
H      45.814699999999995     46.562149999999995     48.054550000000006
H      49.627299999999998     46.401150000000001     50.331450000000004
H      49.940700000000000     45.945450000000001     48.464250000000007
H      46.595199999999998     49.274250000000002     46.551550000000006
H      50.185300000000005     49.125949999999996     50.097350000000006
H      46.920200000000001     51.020150000000001     47.823350000000005
H      49.321499999999993     51.306249999999999     49.089650000000006
