5

C      47.961899999999993     48.142374999999987     48.350899999999996
H      48.150300000000001     48.208304999999996     46.990899999999996
H      48.889099999999999     48.900585000000007     48.748000000000005
H      48.022900000000000     47.099414999999993     48.808199999999999
H      47.110900000000001     48.591735000000000     49.009100000000004
