155

C      40.645149999999994     55.669899999999984     40.054449999999989
C      44.136550000000000     49.802899999999994     43.075849999999996
C      44.769249999999992     50.401600000000002     41.835550000000005
C      43.001249999999999     54.637299999999996     40.274949999999997
C      43.978249999999996     51.034599999999998     43.947449999999989
C      44.715950000000007     51.744299999999996     41.458149999999996
C      42.050649999999997     55.692700000000002     40.079249999999988
C      45.127749999999999     51.897700000000000     44.287450000000000
C      43.784750000000003     52.776100000000000     42.030650000000001
C      43.698549999999997     48.591600000000000     43.817450000000001
C      44.216149999999999     47.506699999999995     43.261450000000004
C      45.978750000000005     47.991600000000005     41.475649999999995
C      45.706749999999992     49.379999999999995     41.189550000000004
C      43.436249999999994     48.834299999999999     45.184324000000011
C      45.065150000000003     45.936899999999994     43.565350000000002
C      45.219050000000003     47.073899999999995     42.473649999999999
C      43.539149999999999     52.307699999999997     43.418849999999999
C      43.311049999999994     50.336100000000002     45.357674000000010
C      44.091549999999998     54.395700000000005     39.110650000000000
C      45.457950000000004     45.994199999999992     44.913860000000007
C      49.739750000000001     42.314499999999995     42.209250000000004
C      49.724249999999998     41.465499999999992     41.104149999999990
C      53.146950000000004     44.894999999999996     43.470949999999988
C      53.903750000000002     44.104299999999995     42.527349999999998
C      50.585749999999997     44.388599999999997     43.536549999999991
C      51.703049999999998     41.997500000000002     40.503149999999991
C      51.833949999999994     45.134799999999998     43.878349999999998
C      53.452149999999996     43.109300000000005     41.759449999999994
C      50.825749999999992     43.179500000000004     42.677549999999997
C      51.977450000000005     42.796800000000005     41.716649999999987
C      48.320949999999996     42.072199999999995     43.070749999999997
C      47.590849999999996     41.001999999999995     42.105250000000005
C      48.364049999999999     40.666200000000003     41.133749999999992
C      50.676450000000003     41.068899999999999     40.031550000000003
C      54.271349999999991     45.617099999999994     44.179650000000002
C      53.854149999999997     46.252700000000004     45.479670000000006
C      55.475250000000003     45.204300000000003     43.464649999999992
C      55.388050000000007     44.192200000000000     42.468650000000004
C      49.342150000000004     44.827500000000001     44.421549999999996
C      47.771649999999994     44.510700000000000     43.889450000000004
C      47.433149999999998     42.942700000000002     43.834549999999993
C      46.047049999999992     42.822299999999998     43.165849999999999
C      46.745249999999999     44.997299999999996     45.045169000000008
C      47.921450000000007     42.162499999999994     44.986799000000005
C      48.032750000000000     51.564999999999998     46.815890000000003
C      49.814350000000005     51.441800000000001     49.102950000000007
C      50.935850000000002     53.854500000000002     47.800070000000012
C      51.392750000000007     53.432000000000002     49.211020000000005
C      48.476050000000001     51.853399999999993     49.592140000000008
C      51.047150000000002     50.428100000000001     51.702890000000011
C      49.803449999999991     53.148700000000005     47.243550000000006
C      50.897649999999992     52.128299999999996     49.525340000000007
C      49.105649999999997     51.921599999999998     47.840400000000010
C      51.080550000000002     50.997299999999996     50.350920000000009
C      47.058250000000001     50.407200000000003     47.202460000000009
C      46.061550000000004     50.277199999999993     46.144240000000003
C      46.051250000000003     51.538399999999996     45.479740000000014
C      47.319849999999995     52.242800000000003     45.765890000000006
C      47.307250000000003     50.841799999999992     49.904920000000011
C      45.936749999999996     51.346000000000004     49.512220000000006
C      46.692850000000007     50.308099999999996     48.598550000000010
C      44.812650000000005     52.571699999999993     45.749900000000004
C      44.996150000000000     51.675600000000003     50.874080000000014
C      43.546849999999999     51.639200000000002     50.544190000000008
C      47.490250000000003     49.821699999999993     51.011470000000010
C      42.888450000000006     50.933899999999994     49.276280000000007
C      48.052050000000001     49.216799999999992     46.781060000000018
C      45.766649999999998     52.913100000000000     48.741120000000009
C      50.762550000000005     49.185000000000002     51.006170000000004
C      49.268450000000001     46.661000000000001     55.981650000000009
C      49.282249999999998     46.888300000000001     54.221850000000003
C      50.151049999999998     47.718099999999993     56.669750000000015
C      50.507750000000001     47.362200000000001     53.605840000000008
C      51.265250000000002     48.401399999999995     55.799250000000008
C      51.361750000000001     48.253799999999998     54.339800000000004
C      52.395849999999996     49.346400000000003     56.148050000000005
C      52.303550000000001     49.283000000000001     53.728430000000003
C      52.769250000000000     50.020799999999994     54.875750000000011
C      52.426450000000003     50.107299999999995     52.411550000000013
H      43.072050000000004     46.790800000000004     45.909670000000013
H      45.535150000000002     52.212199999999996     40.829649999999994
H      42.025250000000000     56.058599999999998     38.989550000000001
H      46.444950000000006     47.399699999999996     40.695649999999986
H      46.256349999999991     49.813699999999997     40.374749999999992
H      44.573350000000005     45.009199999999993     43.198150000000005
H      42.703350000000000     52.796300000000002     43.896449999999994
H      43.593450000000004     50.704300000000003     46.329870000000007
H      42.404150000000001     50.826300000000003     45.099662000000009
H      44.270049999999998     54.981499999999997     38.377649999999996
H      45.160250000000005     54.413899999999998     39.623049999999999
H      44.739950000000000     45.771000000000001     45.638240000000003
H      45.958950000000002     46.883299999999991     45.375051000000006
H      52.758749999999999     41.538200000000003     40.334550000000000
H      51.783349999999999     46.164400000000001     44.453250000000004
H      54.051650000000009     42.578400000000002     41.294949999999993
H      46.669150000000002     40.464399999999998     42.383149999999986
H      48.265850000000000     39.941400000000002     40.431449999999998
H      50.557850000000002     40.545299999999997     39.043550000000003
H      56.474450000000004     45.221299999999999     43.968650000000004
H      56.115549999999992     43.739199999999997     41.850950000000005
H      49.514949999999999     43.983099999999993     45.352846000000007
H      49.328449999999997     45.782600000000002     44.808010000000010
H      47.577949999999994     44.977400000000003     42.872350000000004
H      45.788049999999998     41.985699999999994     42.444150000000000
H      45.518450000000001     43.664199999999994     43.222649999999994
H      45.730150000000002     42.326899999999995     44.087649999999996
H      47.202150000000003     45.001099999999994     45.914210000000004
H      46.384649999999993     43.962400000000002     45.054908000000005
H      47.144949999999994     41.676199999999994     45.660860000000007
H      48.733849999999997     41.894499999999994     45.523820000000008
H      44.106250000000003     53.298400000000001     38.520350000000001
H      41.818950000000001     54.039699999999996     41.695550000000004
H      42.308149999999998     48.256799999999998     47.064280000000004
H      51.195050000000009     54.773200000000003     47.377000000000010
H      52.029149999999994     53.885400000000004     49.962030000000006
H      50.270949999999992     50.878199999999993     52.353560000000009
H      49.189950000000003     53.724699999999999     46.383940000000017
H      45.699449999999999     49.401100000000000     45.571019999999997
H      47.543349999999997     53.236599999999996     45.455630000000006
H      48.627650000000003     52.577100000000002     50.304719999999996
H      46.369750000000003     49.375500000000002     48.820900000000016
H      45.175749999999994     50.982799999999997     51.515690000000014
H      45.359350000000006     52.720299999999995     51.294240000000009
H      43.034149999999997     51.509299999999996     51.404160000000012
H      43.306150000000002     52.664400000000001     49.931860000000007
H      48.430450000000008     49.271900000000002     50.981900000000010
H      46.613249999999994     48.955399999999997     51.227740000000004
H      47.462349999999994     50.418300000000002     52.021080000000005
H      41.823249999999994     50.785499999999999     49.520980000000002
H      43.356449999999995     49.947299999999998     48.958940000000005
H      42.820350000000005     51.866500000000002     48.496120000000012
H      48.283749999999998     48.905100000000004     47.677000000000000
H      49.143449999999994     49.323300000000003     46.405990000000010
H      47.623850000000004     48.114199999999997     46.597940000000008
H      45.981350000000006     53.507199999999997     49.663980000000009
H      44.789550000000006     53.061099999999996     48.673330000000000
H      46.322649999999996     52.586100000000002     47.847410000000004
H      49.955249999999999     48.897300000000001     50.200490000000009
H      51.662350000000004     48.626800000000003     50.878110000000000
H      49.996350000000000     45.927199999999999     55.959850000000010
H      48.476550000000003     45.999399999999994     56.377749999999999
H      48.639049999999997     46.003000000000000     53.695080000000004
H      48.838849999999994     47.835700000000003     54.086320000000008
H      50.189350000000005     48.182599999999994     57.622350000000004
H      50.357749999999996     47.815799999999996     52.670260000000006
H      51.351950000000002     46.649999999999991     53.067630000000015
H      52.727849999999997     49.621300000000005     57.044249999999998
H      52.855750000000000     49.336799999999997     51.708270000000006
H      53.716649999999994     50.643799999999999     54.822750000000006
H      52.924450000000000     51.073899999999995     52.602660000000007
N      42.924949999999995     53.754099999999994     41.343149999999994
N      43.006850000000000     47.868899999999996     46.300940000000004
O      39.525549999999996     55.504999999999995     40.217049999999993
O      53.671549999999989     46.864800000000002     46.398930000000000
O      44.052849999999999     52.578699999999998     46.635399999999997
