6

C      48.076444999999993     48.231149999999992     47.631199999999993
C      47.935534999999994     47.844250000000002     48.829300000000011
H      48.362175000000001     49.315449999999998     47.497800000000005
H      47.905274999999996     47.942950000000003     46.452700000000000
H      47.637824999999999     48.567250000000001     49.547300000000000
H      47.677924999999995     46.684550000000002     48.918700000000008
