12

C      48.002999999999986     46.897994999999995     47.362449999999995
C      46.441299999999998     46.619975000000004     47.450749999999992
C      48.328499999999991     48.206395000000008     47.823550000000004
C      49.506900000000002     48.926525000000005     48.658149999999999
H      46.001899999999992     46.019365000000001     48.338249999999995
H      48.769099999999995     46.133715000000002     47.321449999999992
H      45.884599999999992     47.632744999999993     47.791149999999995
H      49.516499999999994     49.980634999999999     48.537649999999992
H      50.115400000000008     48.450395000000007     47.961949999999995
H      47.389899999999997     48.647394999999996     47.656249999999993
H      49.735100000000003     48.189795000000011     49.434850000000004
H      45.912499999999994     46.165754999999997     46.565149999999996
