122

C      45.381449999999987     39.095049999999993     50.793604999999999
C      43.955950000000001     39.404849999999996     50.915565000000008
C      46.274850000000001     39.151849999999996     49.535895000000004
C      48.533349999999999     52.997650000000000     45.679525000000019
C      48.290250000000000     51.891249999999999     46.686525000000024
C      50.699950000000001     48.578050000000005     44.385025000000020
C      49.609949999999998     52.136749999999992     44.972625000000022
C      49.576949999999997     51.033349999999999     47.064325000000032
C      50.775350000000003     49.913650000000004     44.938425000000016
C      50.379249999999999     51.104950000000002     45.702225000000006
C      50.881950000000003     52.452650000000006     45.567824999999999
C      47.706149999999994     54.175249999999998     45.397325000000031
C      46.644449999999992     54.523650000000004     46.266525000000001
C      45.761650000000003     53.956649999999996     47.149625000000007
C      45.686350000000004     52.425650000000005     47.426640000000006
C      48.207949999999997     55.193249999999992     44.403925000000008
C      48.914550000000006     54.878250000000008     43.104725000000002
C      47.293850000000006     56.313149999999993     44.598724999999995
C      46.292050000000003     55.995150000000010     45.678425000000004
C      49.873949999999994     53.958550000000002     43.254425000000026
C      49.304749999999999     52.391049999999993     43.469525000000004
C      50.612750000000005     52.757350000000002     42.555125000000004
C      51.589150000000004     47.464849999999998     45.204625000000028
C      44.757750000000001     51.541250000000005     46.455225000000020
C      47.062350000000009     51.863849999999999     47.514166000000003
C      48.454750000000004     51.639949999999999     48.020656000000002
C      44.660749999999993     54.833749999999995     47.735369000000006
C      44.288049999999998     56.150150000000011     47.342773700000002
C      45.082049999999995     56.454149999999998     46.176325000000013
C      45.322649999999996     50.031949999999995     46.338225000000016
C      49.288950000000000     52.523449999999997     49.067045000000007
C      51.501149999999996     49.498049999999999     43.621925000000012
C      48.375749999999996     51.414249999999996     42.586625000000026
C      48.158150000000006     42.041750000000000     51.700705000000006
C      50.075450000000004     45.886949999999999     47.709920000000004
C      50.837549999999993     43.859150000000000     51.291955000000009
C      49.100250000000003     42.384249999999994     52.744675000000008
C      51.440449999999998     45.895750000000000     48.222624000000003
C      50.301950000000005     42.574349999999995     53.797865000000009
C      49.901949999999999     44.452050000000000     50.232375000000005
C      50.269850000000005     43.174650000000000     52.438865000000007
C      50.429450000000003     45.248750000000001     49.081095000000005
C      47.837450000000004     41.994550000000004     50.378255000000003
C      46.755650000000003     42.012150000000005     51.484785000000009
C      48.850949999999997     46.594750000000005     47.121325000000006
C      44.437449999999998     40.781649999999999     48.931485000000002
C      43.337649999999996     40.274149999999992     49.613995000000003
C      45.677850000000007     41.600450000000009     48.961185000000008
C      46.518249999999995     42.304850000000002     50.003765000000008
C      45.092849999999999     41.269649999999999     47.683594000000006
C      52.796949999999995     46.770550000000000     48.397285000000004
C      46.353849999999994     43.919550000000001     50.043425000000006
C      47.547950000000000     49.870750000000001     49.927335000000006
C      49.741349999999997     49.501249999999999     51.755155000000009
C      50.192250000000001     50.041049999999998     50.595145000000002
C      48.645550000000000     48.333449999999999     51.597775000000006
C      49.190550000000002     49.672849999999997     49.487885000000006
C      48.183650000000000     48.559350000000002     50.090245000000003
C      49.562849999999997     49.546549999999996     47.963614000000007
C      47.848950000000002     47.368850000000002     49.400685000000003
C      48.739550000000008     48.327749999999995     47.181825000000011
C      48.307050000000004     47.397350000000003     48.048618000000005
H      49.763949999999994     46.750850000000000     44.395425000000024
H      44.160550000000001     41.632149999999996     45.394325000000016
H      43.221050000000005     38.590850000000003     50.649395000000005
H      43.745649999999998     39.742249999999999     52.034695000000006
H      48.625050000000002     47.797049999999999     43.218725000000013
H      53.175350000000009     46.870149999999995     47.480389000000002
H      47.297350000000009     51.341549999999998     43.102525000000014
H      48.506249999999994     44.916849999999997     45.490925000000004
H      51.938749999999999     52.662549999999996     45.249324999999999
H      48.326149999999998     54.636049999999997     42.163824999999996
H      47.560550000000006     57.469250000000002     44.324825000000004
H      51.361750000000001     52.288449999999997     43.154325000000007
H      51.124350000000007     52.750550000000004     41.721125000000008
H      51.913550000000001     48.039650000000009     46.143825000000021
H      52.377750000000006     46.676650000000002     45.251425000000005
H      45.743949999999998     49.491150000000005     45.467525000000016
H      43.718850000000003     51.499650000000003     46.425625000000018
H      45.165049999999994     51.885249999999999     45.518825000000014
H      45.599249999999998     52.646749999999997     48.842515000000006
H      43.879649999999998     54.676250000000003     48.429335000000002
H      43.684250000000006     56.898250000000004     47.759785000000008
H      44.812049999999999     57.469549999999998     45.832725000000011
H      46.215549999999993     49.707949999999997     46.708925000000022
H      44.275750000000002     49.643950000000004     46.771925000000003
H      49.976150000000004     51.820849999999993     49.230725000000007
H      49.787750000000003     53.383049999999997     48.461335000000005
H      48.843950000000007     52.873850000000004     49.991445000000006
H      50.788150000000002     49.626450000000006     42.671825000000020
H      52.451449999999994     49.926749999999998     43.341525000000019
H      50.634850000000000     54.227449999999990     43.996125000000006
H      48.770949999999999     50.496250000000003     42.807525000000005
H      48.255949999999999     51.590949999999992     41.416324999999993
H      47.356849999999994     46.383749999999999     45.415225000000028
H      51.236549999999994     45.166950000000000     51.264215000000014
H      50.990949999999998     41.748149999999995     54.061495000000001
H      48.933350000000004     44.754949999999994     50.481795000000005
H      42.905149999999992     41.103750000000005     50.410055000000007
H      42.460849999999994     39.841549999999998     49.262845000000006
H      53.539150000000006     46.028949999999995     48.800105000000002
H      52.674650000000000     47.785650000000004     48.851885000000003
H      46.744550000000004     44.716449999999995     50.837195000000008
H      47.049949999999995     44.630349999999993     49.481755000000007
H      45.534850000000006     44.217749999999995     49.427945000000008
H      50.504050000000007     43.115549999999999     54.583675000000007
H      46.029250000000005     41.828749999999999     46.094425000000001
H      46.705449999999999     49.511049999999997     49.425975000000008
H      47.367350000000002     50.864149999999995     50.123645000000003
H      47.858050000000006     48.325950000000006     52.495245000000004
H      50.326850000000007     50.081649999999996     52.770744999999998
H      50.848550000000003     50.732849999999999     50.525645000000004
H      49.132850000000005     47.387349999999998     51.757995000000008
H      50.639250000000004     49.285250000000005     47.842034000000005
H      47.738249999999994     46.525850000000005     49.986385000000006
H      48.114549999999994     48.757249999999999     46.340325000000000
H      50.911649999999995     46.830950000000001     46.093624999999996
N      49.366649999999993     47.662950000000002     44.055925000000009
N      48.153149999999997     45.792349999999999     45.984125000000006
N      44.934749999999994     41.502549999999999     46.154625000000017
O      46.489550000000008     38.530450000000002     50.898535000000003
O      46.713949999999997     39.635550000000009     48.580725000000008
