6

C      47.812349999999995     48.146549999999991     48.608899999999991
C      48.013850000000012     47.853450000000009     47.299700000000001
H      46.903449999999999     48.136049999999997     48.953200000000002
H      48.610450000000007     48.085850000000008     49.324700000000000
H      47.133749999999999     47.960450000000009     46.704300000000003
H      49.096550000000001     47.917749999999998     46.675300000000000
