34

C      48.744649999999986     49.367249999999999     45.965349999999994
C      47.918149999999997     49.599950000000000     47.372750000000011
C      46.030749999999998     45.796350000000004     44.120249999999999
C      45.202550000000002     45.540350000000004     45.289550000000006
C      48.391149999999996     48.443649999999998     45.047850000000004
C      46.787549999999996     48.585550000000005     47.384850000000000
C      47.233949999999993     46.534350000000003     44.018550000000005
C      45.578649999999996     46.387950000000004     46.466750000000005
C      47.400549999999996     47.472950000000004     45.215050000000005
C      46.622850000000000     47.451950000000004     46.370950000000008
C      51.038250000000005     50.620950000000001     46.501149999999996
C      50.081850000000003     49.906849999999999     45.641450000000006
C      48.574050000000000     49.078350000000007     48.546450000000007
C      48.365849999999995     50.505249999999997     48.407850000000010
C      48.903849999999991     48.082550000000005     49.680450000000008
C      47.934849999999997     49.413249999999998     52.050950000000000
C      47.115650000000002     48.202949999999994     52.065650000000005
C      48.117450000000005     48.433850000000000     51.102850000000004
C      45.779150000000001     46.322550000000000     51.202749999999995
C      45.946249999999992     47.482549999999996     52.005850000000002
H      45.913650000000004     45.167050000000003     43.364850000000004
H      44.471249999999998     44.551949999999998     45.481949999999998
H      49.042850000000001     48.351350000000004     44.147950000000002
H      46.560749999999999     48.391150000000003     48.553250000000006
H      47.653149999999997     46.626550000000002     42.989649999999997
H      44.810050000000004     46.061050000000002     47.076350000000005
H      50.564149999999998     49.675549999999994     44.565449999999998
H      47.933849999999993     50.985549999999996     49.385850000000005
H      49.047849999999997     46.936249999999994     49.392450000000004
H      50.016350000000003     48.242849999999997     49.792250000000010
H      47.962249999999997     50.306750000000001     52.839950000000002
H      45.496650000000002     47.186349999999997     53.010350000000003
O      51.528750000000002     51.448050000000002     47.161650000000002
O      46.203350000000000     45.568249999999999     50.434049999999999
