21

C      48.756549999999990     45.958799999999982     45.656199999999991
C      48.560049999999997     47.907999999999994     50.605300000000000
C      47.973949999999995     48.503200000000000     49.308700000000002
C      47.246949999999991     50.291800000000002     47.138499999999993
C      47.620449999999991     47.862999999999992     48.088400000000007
C      47.499749999999992     48.908299999999990     47.021400000000000
C      47.584749999999993     46.405899999999995     48.081599999999995
C      47.773649999999996     48.276800000000001     45.745500000000000
C      47.366249999999994     45.946099999999994     46.611000000000004
C      47.500449999999994     46.873899999999999     45.401600000000002
H      48.851549999999996     45.149999999999999     44.821799999999996
H      49.700250000000004     46.338999999999992     45.750100000000003
H      48.867849999999997     46.858100000000000     50.564200000000000
H      48.951249999999995     48.345199999999998     51.518100000000004
H      48.042049999999996     49.542899999999996     49.568799999999996
H      46.957649999999994     50.631399999999992     48.209499999999991
H      46.784649999999992     50.850000000000001     46.427199999999999
H      47.546749999999996     45.612000000000002     48.924400000000006
H      48.310649999999995     48.994499999999995     45.204700000000003
H      46.299749999999996     45.916599999999995     46.138599999999997
H      47.086949999999995     46.461799999999990     44.481899999999996
