33

C      49.053099999999986     49.945499999999996     46.599299999999992
C      48.641599999999990     48.943400000000004     45.561700000000002
C      49.037399999999998     45.561500000000002     49.065500000000000
C      47.437099999999994     45.789899999999996     46.818700000000007
C      48.838400000000000     49.367200000000004     47.856399999999994
C      47.799199999999992     47.799699999999994     45.481800000000007
C      48.375499999999995     46.803999999999995     48.963099999999997
C      48.031100000000002     45.388799999999996     48.085700000000003
C      48.433900000000001     47.945100000000004     47.889700000000005
C      47.891500000000001     47.199700000000000     46.695599999999999
C      48.988799999999991     49.992200000000004     49.221800000000002
C      48.799599999999991     48.970700000000001     50.399000000000001
C      47.839499999999994     47.642599999999995     50.070499999999996
C      48.137200000000000     51.257899999999999     49.412300000000002
C      47.058799999999998     44.801600000000001     45.425799999999995
C      46.590100000000000     45.261299999999999     48.422200000000004
H      49.488099999999996     50.972699999999996     46.692800000000005
H      48.882399999999997     49.634599999999999     44.642799999999994
H      49.090699999999991     45.003599999999999     50.036500000000004
H      47.472199999999994     47.512200000000000     44.504400000000004
H      50.101199999999999     50.174600000000005     49.073700000000002
H      48.470700000000001     49.274800000000006     51.495599999999996
H      49.857599999999998     48.725200000000008     50.558599999999998
H      46.912900000000000     47.618100000000005     49.507599999999996
H      47.726599999999998     46.952099999999994     50.934799999999996
H      48.805900000000001     52.050599999999996     50.185199999999995
H      47.791499999999992     51.509700000000002     48.362800000000007
H      47.122899999999994     51.274600000000000     50.028199999999998
H      47.433500000000002     45.916400000000003     44.930700000000002
H      45.898800000000001     44.641500000000001     45.192099999999996
H      47.529099999999993     43.949400000000004     45.224999999999994
H      46.400399999999998     44.143799999999999     48.530000000000001
H      46.622799999999991     45.778900000000000     49.389700000000005
