23

C      49.171349999999990     49.845299999999995     48.864014999999988
C      49.367449999999998     49.878799999999991     47.233514999999997
C      48.027549999999998     47.980899999999998     46.481915000000001
C      49.370150000000002     48.623899999999999     46.099514999999997
C      48.179349999999999     48.553199999999997     49.070115000000001
C      47.452949999999994     47.813099999999999     48.079014999999998
C      48.567749999999997     47.517600000000002     50.137845000000013
C      47.595250000000000     46.415300000000002     48.470614999999995
C      46.483749999999993     48.792800000000000     48.741114999999994
C      48.023649999999996     46.281300000000002     49.811352999999997
H      46.191350000000000     49.712699999999998     48.384715000000000
H      50.231349999999999     49.876100000000001     49.391424000000001
H      48.768149999999999     50.707599999999999     49.281080000000003
H      48.527849999999994     50.375700000000002     46.961214999999996
H      50.144050000000000     50.634399999999999     47.065114999999992
H      48.118649999999995     46.984200000000001     45.730314999999990
H      47.047849999999997     48.577300000000001     46.205314999999999
H      50.220649999999999     47.750399999999999     46.066914999999995
H      49.523549999999993     49.318199999999997     45.237015000000000
H      49.404750000000000     47.775999999999996     50.762985000000000
H      47.618949999999998     45.692799999999998     47.750315000000001
H      45.768650000000001     48.216799999999999     49.524063000000012
H      48.258450000000003     45.292400000000001     50.311535000000006
