22

C      45.953999999999994     49.644749999999995     48.312949999999994
C      47.181999999999995     49.918250000000000     49.318650000000005
C      45.961499999999994     47.978750000000005     48.203249999999997
C      48.651699999999998     49.239450000000005     49.077050000000000
C      47.364200000000004     47.403350000000003     47.835149999999999
C      48.517599999999995     47.978250000000003     48.356449999999995
C      47.460500000000003     46.073250000000002     47.238349999999997
C      49.593799999999995     47.117050000000006     48.500050000000002
C      48.817599999999992     45.609150000000000     46.892350000000008
C      49.957900000000002     45.953249999999997     47.804649999999995
H      45.149499999999996     50.387050000000002     48.439049999999995
H      46.481900000000003     49.793650000000000     47.327950000000001
H      47.599100000000000     50.970450000000000     49.315650000000005
H      46.482099999999996     49.986050000000006     50.214749999999995
H      45.063200000000002     47.709950000000006     47.449150000000003
H      45.885399999999997     47.441550000000007     49.144750000000002
H      49.106400000000001     49.983149999999995     48.493449999999996
H      49.143999999999998     49.195350000000005     50.065749999999994
H      46.527399999999993     45.758750000000006     46.733549999999994
H      50.337799999999994     47.456249999999997     49.261049999999997
H      49.117399999999996     45.029550000000000     45.785250000000005
H      50.936799999999998     45.411649999999995     47.653050000000007
