16

C      46.975149999999992     46.244799999999998     47.866399999999992
C      46.567850000000000     48.792699999999996     46.323000000000000
C      47.703850000000003     47.315100000000001     48.356400000000001
C      47.388550000000009     48.555800000000005     47.432800000000000
C      48.663249999999998     47.358699999999999     49.248899999999999
C      48.132249999999999     49.869399999999999     47.705399999999997
C      49.542150000000007     48.524599999999992     49.381500000000003
C      49.239850000000004     49.763700000000000     48.620000000000005
H      46.497350000000004     46.360599999999991     46.921599999999998
H      47.006450000000001     45.296000000000006     48.253500000000003
H      46.588549999999998     49.736999999999995     45.754300000000001
H      45.816350000000000     47.976199999999992     46.159800000000004
H      49.070750000000004     46.370100000000008     49.714600000000004
H      47.887349999999998     50.703999999999994     47.085200000000000
H      50.183650000000000     48.178200000000004     50.245699999999999
H      49.860050000000001     50.563500000000005     49.163699999999992
