19

C      47.150700000000001     50.509334999999993     49.708149999999989
C      47.635099999999994     46.220435000000009     50.198550000000004
C      47.969700000000003     49.320335000000000     49.401550000000000
C      48.328299999999999     47.024834999999996     48.087049999999998
C      48.296599999999998     48.530135000000001     48.301249999999996
C      48.188000000000002     45.853035000000006     49.002850000000002
C      48.957899999999995     49.054735000000008     47.064149999999998
C      48.686499999999995     46.933935000000005     46.688049999999997
C      49.231499999999997     48.090535000000003     45.998150000000003
H      46.314300000000003     50.174935000000005     50.035150000000002
H      47.670400000000001     51.160435000000007     50.350649999999995
H      46.974800000000002     51.214934999999997     48.820749999999997
H      47.755200000000002     45.637135000000001     51.023750000000000
H      47.072900000000004     47.187435000000008     50.250050000000009
H      48.132500000000007     48.543835000000001     50.277949999999997
H      48.515699999999995     44.785065000000003     48.885149999999996
H      49.271500000000003     50.078334999999996     46.699649999999998
H      48.434999999999988     45.876935000000003     46.253450000000001
H      49.685699999999997     48.204035000000005     44.976250000000000
