22

C      47.051849999999988     45.733699999999985     47.160699999999991
C      48.328550000000000     45.491399999999992     47.728800000000000
C      46.357450000000000     47.175099999999993     47.607400000000005
C      49.075349999999993     46.393399999999993     48.902800000000006
C      47.429849999999995     48.260100000000001     47.954700000000010
C      48.577450000000006     47.921399999999998     48.734800000000000
C      47.348149999999997     49.723599999999998     47.768599999999999
C      49.694949999999999     48.860499999999995     49.092300000000002
C      48.355449999999998     50.672400000000003     48.021200000000000
C      49.485549999999996     50.170600000000000     48.683700000000009
H      46.457949999999997     44.909500000000001     47.438900000000011
H      46.855049999999999     45.600800000000000     46.173200000000001
H      49.048349999999999     45.827300000000001     47.056900000000006
H      48.747149999999998     44.335500000000003     47.824600000000011
H      45.624749999999999     46.663699999999999     48.469600000000007
H      45.569949999999999     47.567199999999993     46.988300000000002
H      50.088349999999998     46.376699999999992     48.525399999999998
H      49.081150000000001     46.087600000000002     49.826799999999999
H      46.585450000000002     49.969699999999996     46.992899999999999
H      50.430050000000001     48.535599999999995     49.729300000000002
H      48.200849999999996     51.664499999999997     47.753100000000011
H      50.317850000000000     50.917999999999999     48.727800000000009
