22

C      46.373999999999995     48.532049999999984     46.148863499999990
C      45.946399999999997     47.342050000000000     46.955643500000008
C      47.850499999999997     48.729149999999990     45.809133500000002
C      47.200299999999999     46.889849999999996     47.987903500000002
C      48.863299999999995     48.426949999999991     47.141013500000000
C      48.395699999999991     47.640649999999994     48.179463499999997
C      50.016000000000005     49.219049999999996     47.388773500000013
C      48.821799999999996     47.820250000000001     49.541983500000001
C      50.353200000000001     49.450350000000000     48.764693500000007
C      49.615899999999996     48.912250000000000     49.952223500000002
H      45.493600000000001     48.860849999999999     45.485225499999999
H      46.402599999999993     49.460749999999990     47.054763500000007
H      45.022599999999997     47.900750000000002     47.421853500000012
H      45.712400000000002     46.530949999999990     46.144873500000003
H      47.875200000000007     49.870350000000002     45.366227500000008
H      48.170100000000005     47.903849999999991     45.100846500000003
H      46.571600000000004     46.904550000000000     49.037283500000001
H      47.389700000000005     45.653449999999992     48.006613500000000
H      50.341899999999995     49.881450000000001     46.349053499999997
H      48.322100000000006     47.350449999999995     50.398713499999999
H      50.977400000000003     50.346550000000008     48.959743500000002
H      49.973900000000000     49.512450000000001     50.899153499999997
