56

C      47.457269999999987     49.894340000000000     48.128299999999996
C      47.570689999999999     49.650109999999998     49.634399999999999
C      45.287509999999997     45.210359999999994     47.679699999999997
C      45.958340000000000     44.867059999999995     49.004000000000005
C      47.020679999999999     48.742769999999993     47.162199999999999
C      47.452869999999997     48.165530000000004     49.968500000000006
C      46.053730000000002     46.238180000000000     46.823499999999996
C      46.751099999999994     45.874889999999994     49.649500000000003
C      46.405249999999995     47.483199999999997     47.529700000000005
C      47.022300000000001     47.218069999999997     48.952500000000001
C      47.539819999999992     51.258359999999996     47.598900000000000
C      47.763700000000000     52.457009999999997     48.211899999999986
C      48.030270000000002     52.219579999999993     49.563199999999995
C      48.033969999999997     50.907889999999995     50.346000000000004
C      44.668049999999994     44.109510999999998     46.990399999999994
C      45.437049999999999     42.458000000000013     49.037499999999994
C      44.976739999999999     43.255799999999994     47.802700000000002
C      45.695249999999994     43.620093999999995     49.851299999999995
C      47.375630000000001     51.709490000000002     46.156499999999994
C      47.073149999999998     53.124759999999995     45.672399999999996
C      47.720059999999989     53.764300000000006     47.834900000000005
C      47.169089999999997     50.484089999999995     45.343800000000002
C      47.121029999999998     49.127300000000005     45.795299999999997
C      46.674419999999998     47.991180000000000     44.765100000000004
C      46.061760000000000     46.585740000000001     45.332200000000000
C      50.003169999999997     47.593480000000000     50.451200000000000
C      50.631670000000000     46.040779999999998     48.780100000000004
C      48.536069999999995     50.918620000000004     51.588199999999986
C      50.119869999999992     47.283460000000005     49.140900000000002
C      48.627170000000007     47.871440000000007     50.907200000000003
C      47.076479999999997     45.422110000000004     46.013499999999993
C      51.029570000000000     48.342410000000001     48.395499999999998
H      46.699919999999999     45.448449999999994     50.731999999999999
H      48.144170000000003     53.345309999999998     49.890499999999989
H      44.072730000000000     43.798079000000001     46.142600000000002
H      45.472249999999995     41.409099999999995     49.326499999999996
H      45.894579999999998     43.569075999999995     50.983399999999989
H      46.869949999999996     53.712500000000006     44.493499999999997
H      47.329499999999996     54.590900000000005     48.567799999999991
H      47.229249999999993     50.780539999999988     44.304100000000005
H      46.059059999999995     48.455810000000000     44.028599999999997
H      47.674869999999999     47.960899999999995     44.188999999999993
H      45.282699999999998     45.940610000000007     44.683599999999998
H      50.916169999999994     47.786969999999997     51.012600000000006
H      50.232069999999993     45.093639999999994     48.855800000000002
H      51.244569999999996     46.008610000000004     47.947400000000002
H      48.547669999999997     49.786069999999995     51.884799999999998
H      49.220569999999995     47.592240000000004     48.598200000000006
H      51.277270000000001     48.106849999999994     47.313400000000001
H      48.162569999999988     48.137910000000005     51.858800000000002
H      49.031869999999998     51.727199999999996     51.971400000000003
H      47.058560000000000     44.354354000000001     46.029899999999998
H      48.132970000000000     45.903639999999996     46.041399999999996
H      50.527770000000004     49.303039999999996     48.292799999999986
H      51.927270000000000     48.479110000000006     49.111599999999996
N      47.153250000000000     54.081899999999990     46.539900000000003
