22

C      48.973199999999991     47.277499999999996     45.777899999999988
C      49.997399999999999     46.890599999999999     46.709400000000002
C      47.413200000000003     47.331299999999999     46.350099999999998
C      50.004700000000000     47.960599999999999     47.940500000000000
C      47.308099999999996     48.186999999999998     47.675200000000004
C      48.586900000000000     48.440500000000000     48.413600000000002
C      46.090699999999998     48.781499999999994     48.164100000000005
C      48.340999999999994     49.221200000000003     49.571899999999999
C      46.037400000000005     49.477100000000007     49.394999999999996
C      47.189400000000006     49.658500000000004     50.324200000000005
H      49.143400000000000     48.251099999999994     46.061500000000009
H      49.359300000000005     47.151000000000003     44.836500000000001
H      50.941400000000002     46.941700000000004     46.400600000000011
H      49.856999999999999     45.773099999999999     47.040100000000010
H      46.867699999999999     47.661500000000004     45.443399999999997
H      47.276300000000006     46.321899999999999     46.723600000000005
H      50.689900000000009     48.725400000000000     48.109800000000007
H      50.451200000000000     47.400999999999996     48.692499999999995
H      45.120000000000005     48.529400000000010     47.568300000000008
H      49.500100000000003     48.954799999999992     49.909499999999994
H      45.058599999999998     49.770700000000005     49.846800000000002
H      46.925399999999996     50.226900000000001     51.163499999999999
