35

C      48.550849999999983     47.132499999999993     46.810099999999991
C      49.908649999999994     47.010300000000001     47.200899999999997
C      48.759650000000008     48.466299999999997     51.348199999999999
C      47.381249999999994     47.215700000000005     47.838599999999992
C      50.497349999999997     46.926200000000001     48.592700000000001
C      47.900149999999996     48.569399999999995     50.292999999999999
C      49.882450000000006     47.577999999999996     50.966400000000000
C      48.064750000000004     47.522700000000007     49.089499999999994
C      49.505350000000007     47.161600000000000     49.670799999999993
C      47.876649999999998     47.132699999999993     45.532400000000003
C      48.616950000000003     46.861100000000000     44.186699999999995
C      49.960049999999995     46.444899999999997     44.436699999999995
C      50.400750000000002     46.464700000000001     45.878499999999995
C      46.387749999999997     47.454900000000002     45.611799999999995
C      45.715350000000001     47.624699999999997     44.353900000000003
C      46.392150000000001     47.197899999999997     43.151899999999991
C      47.668949999999995     46.835299999999997     43.043299999999995
C      46.146450000000002     47.318599999999996     47.076599999999992
C      45.301249999999996     46.980399999999996     42.094799999999999
C      48.877350000000007     49.068400000000004     52.685799999999993
C      49.271850000000001     47.810499999999998     53.887300000000003
H      48.074349999999995     46.806899999999999     42.094599999999993
H      51.401650000000004     46.730799999999995     48.759399999999992
H      46.868449999999996     49.246500000000005     50.104199999999999
H      51.037350000000004     47.510600000000004     51.305999999999990
H      50.773949999999999     45.961999999999996     43.875300000000003
H      51.363050000000001     46.142699999999998     45.678999999999995
H      44.598349999999996     47.999599999999994     44.489799999999995
H      45.353849999999994     47.763900000000000     47.576000000000001
H      49.971649999999997     49.016699999999993     52.815199999999997
H      48.501549999999995     50.038000000000004     52.768999999999998
H      48.969049999999996     48.192299999999996     54.821700000000000
H      49.088650000000001     46.648800000000001     53.647900000000000
H      50.305049999999994     47.657100000000000     54.256599999999999
O      44.669449999999998     46.842300000000002     41.178300000000000
