22

C      50.572349999999993     47.392099999999999     48.616299999999988
C      50.167949999999990     48.664300000000004     49.510499999999993
C      49.999449999999996     47.715399999999995     47.145799999999994
C      48.607550000000003     48.278399999999998     49.852499999999992
C      48.422349999999994     48.094299999999997     47.374599999999994
C      47.871849999999995     48.253800000000005     48.665399999999991
C      47.451449999999994     47.862000000000002     46.372199999999992
C      46.487849999999995     48.594799999999999     48.839399999999998
C      46.004449999999991     48.099700000000006     46.598499999999994
C      45.464050000000000     48.459799999999994     47.801899999999996
H      49.970249999999993     46.484299999999998     48.517499999999991
H      51.613150000000005     46.969500000000004     48.566199999999995
H      50.957650000000001     48.880199999999995     50.245099999999994
H      50.080150000000003     49.515700000000002     48.852899999999991
H      50.265649999999994     46.794099999999993     46.424199999999992
H      50.773650000000004     48.322300000000006     46.560499999999998
H      48.548949999999991     49.236499999999999     50.455399999999997
H      48.265950000000004     47.411799999999992     50.559200000000004
H      47.984849999999994     47.225100000000005     45.440799999999996
H      46.048149999999993     48.899899999999995     49.916699999999992
H      45.298050000000003     47.900100000000002     45.735599999999991
H      44.386849999999995     48.686299999999996     47.918799999999997
