21

C      45.943899999999992     48.725049999999989     49.180049999999980
C      46.413200000000003     47.325749999999999     46.548849999999987
C      47.070000000000007     47.904449999999997     49.770349999999993
C      46.827900000000000     49.526749999999993     47.871349999999993
C      47.922600000000003     47.323549999999997     48.687149999999988
C      47.268199999999993     48.160449999999997     47.509349999999998
C      48.977699999999999     46.415450000000000     48.571249999999992
C      47.885599999999997     48.063249999999996     46.151649999999989
C      49.684300000000000     46.506749999999997     47.346449999999990
C      49.362899999999996     47.342549999999996     46.214749999999995
H      45.317300000000003     49.597449999999995     49.918849999999992
H      45.389300000000006     48.510050000000000     48.391749999999988
H      45.431200000000004     47.728849999999994     46.423049999999989
H      46.412000000000006     46.082049999999995     46.580050000000000
H      47.005600000000001     47.436049999999994     50.839250000000007
H      46.304400000000001     49.972349999999992     47.141549999999995
H      47.425899999999999     50.286450000000002     48.156250000000000
H      49.258400000000009     45.713549999999998     49.332049999999995
H      47.707200000000000     48.833549999999995     45.160749999999993
H      50.682699999999997     45.993049999999997     47.226149999999990
H      49.843099999999993     47.535449999999997     45.331750000000000
