19

C      47.480640999999977     46.814599999999999     49.925459999999987
C      48.667499999999990     46.461400000000005     49.014610000000005
C      46.699399999999997     48.317500000000003     49.465850000000003
C      47.714928999999998     48.619899999999994     48.303529999999995
C      48.702609999999993     47.563399999999994     47.914739999999995
C      47.905631999999997     49.943800000000003     47.520610000000005
C      49.608969999999985     47.679700000000004     46.747420000000005
C      49.547199999999989     48.836099999999995     45.862169999999992
C      48.756720000000001     49.853999999999992     46.345039999999997
H      46.771500000000003     45.985199999999999     50.121960000000001
H      47.987443999999996     46.581099999999999     50.980230000000006
H      48.969299999999990     45.276299999999999     48.851749999999996
H      49.577050000000000     46.729899999999994     49.314520000000002
H      46.710999999999984     49.190800000000003     50.315780000000004
H      45.626100000000008     48.252699999999997     49.380549999999999
H      47.349562199999994     50.723700000000001     47.591049999999996
H      50.373899999999992     47.007799999999996     46.421939999999992
H      50.226849999999999     49.034399999999998     45.019769999999994
H      48.801149999999993     50.619499999999995     45.444059999999993
