54

C      51.281999999999996     44.434449999999984     44.597049999999996
C      47.021500000000003     48.969949999999997     50.781950000000002
C      48.258200000000002     45.461550000000003     47.005249999999997
C      49.365200000000002     50.616450000000000     46.635650000000005
C      47.775700000000001     47.318550000000002     48.911650000000002
C      47.854900000000001     49.861550000000008     50.091950000000004
C      46.941200000000002     44.892049999999998     47.563150000000000
C      49.290300000000002     50.642650000000003     48.111150000000002
C      48.783800000000006     46.516249999999999     46.057049999999997
C      49.151900000000005     49.258550000000000     46.177950000000003
C      47.398500000000006     46.082949999999997     48.145350000000001
C      48.753400000000006     49.526650000000004     48.890050000000009
C      48.961000000000006     47.922150000000002     46.702150000000010
C      48.674200000000006     48.255650000000003     48.119350000000004
C      46.192300000000003     50.623750000000001     52.391350000000010
C      47.041100000000007     47.550249999999991     50.124450000000003
C      45.387400000000007     50.846249999999998     53.422750000000001
C      46.078000000000003     46.692250000000001     50.529150000000008
C      45.023600000000002     45.871849999999995     50.963850000000001
C      46.228300000000004     43.705950000000001     47.544750000000001
C      48.044700000000006     51.203149999999994     50.736650000000004
C      46.015900000000002     49.291350000000008     51.801850000000009
C      47.454700000000003     51.378950000000003     52.027949999999997
C      49.670900000000003     45.165849999999992     46.630150000000008
C      49.917900000000003     43.991849999999999     45.586750000000002
C      49.037900000000000     45.294650000000004     43.536149999999999
C      48.887100000000004     46.530349999999999     44.431150000000009
C      49.819200000000002     44.177250000000001     44.129250000000006
C      48.800900000000006     52.260450000000006     44.956949999999999
C      49.969000000000001     51.563250000000011     45.725850000000001
H      51.504299999999994     45.426149999999993     44.569049999999997
H      51.830599999999997     43.392749999999992     44.689349999999997
H      49.448500000000003     51.749150000000000     48.501150000000003
H      49.087700000000005     49.117449999999991     45.002950000000006
H      44.759600000000006     44.963350000000005     50.476050000000008
H      44.169400000000003     46.512649999999994     51.113250000000001
H      46.518000000000001     42.695750000000004     47.208950000000009
H      45.291000000000004     43.743949999999998     48.212250000000004
H      45.306400000000004     48.539850000000001     52.204349999999998
H      48.637100000000004     52.024549999999991     50.296050000000001
H      47.601900000000001     52.505750000000006     52.057549999999999
H      50.332200000000007     45.321249999999992     47.370350000000009
H      50.233700000000006     43.000450000000001     45.958149999999996
H      47.862600000000008     44.983750000000001     43.514150000000008
H      49.403400000000005     45.675249999999991     42.577249999999999
H      48.020600000000002     46.759050000000002     43.698050000000002
H      49.768800000000006     47.250850000000000     44.177950000000003
H      49.466500000000003     43.245149999999995     43.573550000000004
H      48.524900000000002     52.147550000000010     43.905949999999997
H      48.718500000000006     53.304249999999996     45.247450000000008
H      47.980700000000006     51.605949999999993     45.483750000000008
H      50.253600000000006     51.095550000000003     44.907850000000003
H      50.630400000000002     52.252549999999999     46.266350000000010
O      44.775200000000005     51.508550000000000     52.676150000000000
