18

C      48.334849999999996     47.760249999999999     49.400034999999988
C      49.324550000000002     48.898350000000001     48.547654999999999
C      48.127650000000003     47.977449999999997     47.968914999999996
C      47.134850000000000     48.898150000000008     47.562174999999996
C      46.434550000000002     48.717450000000007     48.750335000000000
C      46.856550000000006     47.832850000000001     49.820124999999997
C      48.553449999999998     46.690150000000010     47.106614999999998
C      47.226250000000007     49.462350000000008     46.025655000000000
H      49.015450000000001     47.095050000000008     49.953245000000003
H      45.533850000000001     49.323950000000004     48.820084999999999
H      46.372150000000005     47.719750000000005     50.779265000000002
H      48.166550000000001     45.677050000000001     47.368985000000002
H      48.293050000000008     46.798150000000007     45.929024999999996
H      49.738650000000007     46.711450000000006     47.040295000000000
H      46.435650000000003     50.322949999999999     45.839005000000000
H      46.816450000000003     48.759350000000005     45.220734999999998
H      48.183250000000001     49.985050000000008     45.899135000000001
O      50.466149999999999     49.170150000000000     48.547894999999997
