22

C      46.239949999999993     47.645599999999988     49.365999999999993
C      45.874749999999999     47.491699999999994     47.783400000000000
C      47.506250000000001     48.425600000000003     49.744600000000005
C      46.559750000000001     48.669899999999998     46.893900000000002
C      48.499850000000002     48.130700000000004     48.602100000000007
C      48.123150000000003     48.545199999999994     47.192500000000003
C      49.638449999999999     47.376199999999997     49.081300000000006
C      49.199549999999995     48.720500000000001     46.202600000000004
C      50.576850000000000     47.525400000000005     47.940100000000001
C      50.376250000000006     48.230699999999999     46.593500000000006
H      45.273249999999997     47.983599999999996     49.797200000000004
H      46.189450000000001     46.548400000000001     49.813000000000002
H      44.663249999999998     47.073300000000003     48.048900000000003
H      46.264549999999993     46.414199999999994     47.246700000000004
H      47.091749999999998     49.477400000000003     49.561100000000010
H      47.959449999999997     48.272900000000007     50.763700000000000
H      46.133150000000001     49.585800000000006     47.115500000000004
H      46.590849999999996     48.520300000000006     45.746400000000008
H      49.688250000000004     46.823599999999999     50.000699999999995
H      48.871350000000000     48.993200000000002     45.236300000000000
H      51.336750000000002     46.799000000000007     47.768200000000007
H      51.088749999999997     48.047600000000003     45.868000000000002
