6

C      47.446449999999992     48.432749999999984     47.734849999999994
C      48.377750000000006     47.523709999999994     48.097249999999995
H      46.520849999999996     48.094679999999997     47.986049999999999
H      47.365650000000002     49.435810000000004     47.459049999999998
H      49.479150000000004     47.714829999999992     48.020149999999994
H      48.004649999999998     46.564189999999996     48.540950000000002
