6

C      47.911749999999984     47.985199999999992     48.734699999999989
C      48.349249999999998     48.275599999999997     47.486500000000007
H      48.108449999999991     46.973299999999995     49.222899999999996
H      47.096949999999993     48.715000000000003     49.236199999999997
H      47.980350000000001     49.026700000000005     46.957599999999999
H      48.903050000000007     47.557000000000002     46.763800000000003
