21

C      47.707749999999990     47.022649999999992     43.920549999999992
C      46.628450000000001     47.115920000000003     46.214849999999998
C      49.141750000000002     47.980739999999997     51.706150000000001
C      47.993150000000000     46.893140000000002     45.469050000000003
C      48.465150000000008     48.186290000000000     44.797150000000002
C      48.648550000000000     48.043689999999998     46.047649999999997
C      49.501650000000012     49.186290000000000     50.951450000000001
C      48.970150000000004     48.772689999999997     47.183450000000001
C      49.350549999999998     49.153689999999997     49.495150000000002
C      48.747750000000011     48.172349999999994     48.545150000000000
H      48.433950000000010     46.452140000000000     43.176349999999999
H      46.686350000000004     47.508490000000009     43.834350000000001
H      46.574050000000000     47.812880000000000     47.125650000000000
H      45.990650000000002     47.771990000000002     45.612749999999998
H      49.148850000000010     48.041299999999993     52.823650000000001
H      48.583950000000002     47.129320000000007     51.321450000000006
H      45.979950000000002     45.932310000000001     46.327549999999995
H      50.020049999999998     49.887190000000004     51.599950000000000
H      48.743549999999999     49.872990000000001     47.231150000000007
H      49.664750000000012     50.067689999999999     48.843950000000000
H      48.902550000000005     47.099699999999999     48.964750000000002
