17

C      45.532054999999986     48.145949999999992     48.531999999999982
C      46.531654999999986     46.043250000000000     47.238299999999995
C      47.963854999999995     49.048650000000009     48.464100000000002
C      46.497754999999998     47.162850000000006     47.989399999999989
C      47.947354999999988     47.567949999999996     48.068899999999999
C      49.171754999999990     49.551450000000003     48.862000000000009
C      49.014754999999994     46.641449999999999     48.196699999999993
C      50.376010999999991     48.720649999999999     48.610200000000006
C      50.276936000000006     47.300250000000005     48.460799999999992
H      45.677654999999987     45.353350000000006     47.313099999999991
H      47.605354999999989     45.659050000000001     47.054599999999994
H      46.941554999999994     49.344850000000001     48.510099999999994
H      49.161154999999994     50.646649999999994     48.944400000000002
H      48.956654999999998     45.594149999999999     47.992300000000000
H      51.197145000000006     49.341149999999999     48.832999999999998
H      51.082695000000001     46.664450000000002     48.313499999999991
O      44.802854999999994     48.899150000000006     48.945400000000006
