22

C      47.217599999999990     47.853849999999994     50.603200000000001
C      48.767400000000009     48.261050000000004     50.569900000000004
C      46.386499999999998     47.962250000000004     49.392200000000003
C      49.497200000000007     48.028050000000000     49.199900000000000
C      47.172399999999996     47.670250000000003     48.066999999999993
C      48.656300000000002     47.695550000000004     48.057400000000001
C      46.659400000000005     47.737050000000004     46.758600000000001
C      49.400600000000011     46.902850000000001     46.984700000000004
C      47.497799999999998     47.293250000000000     45.606899999999996
C      48.754199999999997     46.658450000000002     45.732100000000003
H      47.320000000000007     46.730750000000000     50.913499999999999
H      46.583600000000004     48.151850000000003     51.551699999999997
H      48.448900000000009     49.361049999999999     50.578699999999998
H      49.459100000000007     47.927450000000000     51.451899999999995
H      45.640400000000000     48.763650000000005     49.258499999999998
H      45.704000000000008     47.019250000000000     49.349199999999996
H      50.176500000000004     49.028150000000004     49.155799999999999
H      50.256299999999996     47.227950000000000     49.247600000000006
H      45.507300000000001     47.745849999999997     46.485699999999994
H      50.492699999999999     46.902750000000005     47.078800000000001
H      47.357799999999997     47.260350000000003     44.448300000000003
H      49.358699999999999     46.638950000000001     44.775800000000004
