22

C      50.233999999999988     48.910199999999996     48.842600000000004
C      49.908599999999993     47.487900000000003     48.250900000000001
C      48.894099999999995     49.701099999999997     49.194500000000005
C      47.127799999999993     49.657400000000010     47.008800000000008
C      47.779899999999998     48.947500000000005     48.094300000000004
C      48.400099999999995     47.582900000000002     47.822300000000013
C      46.386099999999999     48.730400000000003     48.334000000000003
C      47.791100000000000     46.413600000000002     47.198200000000000
C      45.906399999999991     47.261400000000002     48.499200000000002
C      46.358599999999996     46.244700000000002     47.558400000000006
H      51.079099999999997     48.821200000000005     49.618600000000001
H      50.607799999999997     49.553400000000011     48.047900000000013
H      50.295999999999992     46.879700000000000     47.402700000000010
H      49.651600000000002     46.868499999999997     49.125600000000006
H      48.251300000000001     49.556800000000003     50.126899999999992
H      49.030599999999993     50.735399999999998     49.089000000000013
H      47.241199999999992     50.782100000000000     47.159900000000007
H      46.757400000000004     49.129100000000001     45.873100000000008
H      45.799899999999994     49.400999999999996     49.145600000000002
H      48.359799999999993     45.589799999999997     46.743400000000008
H      44.920900000000003     46.840699999999998     48.994600000000005
H      45.733699999999999     45.217900000000000     47.431300000000007
