20

C      48.297699999999985     45.942664999999998     47.136449999999989
C      47.892399999999995     45.738365000000002     49.268150000000006
C      47.015999999999998     46.421665000000004     47.107150000000004
C      49.092299999999994     49.116565000000008     46.142250000000004
C      47.764499999999998     46.720965000000007     48.342650000000006
C      48.206599999999995     47.991565000000008     48.821950000000001
C      48.618600000000001     48.892965000000004     47.650750000000002
C      47.822599999999994     48.964565000000007     49.799650000000000
C      48.454399999999993     50.336465000000004     47.988650000000007
C      48.053199999999997     50.369564999999994     49.383350000000007
H      46.261499999999998     46.316265000000001     46.189350000000005
H      47.615599999999993     46.023764999999997     50.155550000000005
H      48.792499999999990     45.383565000000004     45.975750000000005
H      47.541799999999995     44.696635000000001     48.947350000000000
H      49.738500000000002     48.025065000000005     46.109949999999998
H      49.644599999999997     50.099765000000005     45.925750000000008
H      48.207499999999996     49.282365000000006     45.426850000000002
H      47.187099999999994     48.941265000000001     50.573149999999998
H      48.327200000000005     51.303364999999999     47.469549999999998
H      47.947099999999992     51.190165000000007     50.033749999999998
