20

C      46.222149999999992     48.884199999999993     46.306199999999990
C      47.832149999999999     48.776400000000002     45.698700000000002
C      49.118049999999997     47.777499999999996     45.734700000000004
C      47.582749999999997     49.270000000000003     47.013100000000009
C      49.216450000000002     47.517999999999994     47.313500000000005
C      48.482349999999997     48.521599999999999     48.044300000000007
C      49.854750000000003     46.482599999999998     48.105999999999995
C      48.101450000000000     48.162500000000001     49.467399999999998
C      49.587249999999997     46.130599999999994     49.526399999999995
C      48.613150000000005     47.049399999999999     50.063400000000001
H      45.740349999999999     47.914099999999998     46.061900000000009
H      45.400550000000003     49.345499999999994     46.792700000000011
H      47.865150000000000     49.609000000000002     45.015900000000002
H      48.897849999999998     46.836899999999993     45.165800000000004
H      49.887949999999996     48.224100000000000     45.349600000000009
H      47.568449999999999     50.401800000000001     47.101900000000001
H      50.599449999999997     45.996999999999993     47.533299999999997
H      47.152749999999997     48.809499999999993     49.794000000000011
H      50.250250000000001     45.598199999999999     50.183200000000014
H      48.153649999999999     46.736200000000004     50.984099999999998
