22

C      47.202050000000000     46.063599999999994     49.732399999999991
C      46.574050000000007     45.639600000000002     48.333900000000000
C      48.417549999999999     47.056800000000003     49.738399999999999
C      46.628450000000008     46.918100000000003     47.540599999999998
C      48.579749999999997     48.109000000000002     48.786300000000004
C      48.022849999999998     47.798799999999993     47.540199999999999
C      49.520150000000008     49.288499999999992     48.836300000000001
C      48.102449999999997     48.544200000000004     46.343000000000004
C      49.612749999999998     50.225600000000007     47.794499999999999
C      48.881549999999997     49.819700000000005     46.566200000000002
H      47.561950000000003     45.214599999999997     50.578299999999999
H      46.546450000000000     46.579999999999991     50.244199999999999
H      45.622750000000003     44.958100000000002     48.188299999999998
H      47.395750000000000     44.925800000000002     48.126800000000003
H      49.269750000000009     46.303899999999992     49.585599999999999
H      48.637149999999998     47.412500000000001     50.691400000000002
H      46.098950000000009     47.624499999999998     48.142299999999999
H      46.106150000000007     47.054600000000001     46.585999999999999
H      50.047249999999998     49.713900000000002     49.665100000000002
H      47.874950000000005     48.188299999999998     45.308599999999998
H      50.377249999999997     51.074199999999998     47.865000000000002
H      48.669150000000009     50.536999999999999     45.748800000000003
