55

C      49.587850000000003     48.856999999999985     47.683049999999994
C      49.024750000000004     47.647409999999994     48.113549999999996
C      46.668349999999997     51.535459999999993     50.623849999999997
C      46.543250000000008     50.140319999999981     51.270050000000005
C      49.571850000000005     50.303939999999990     48.107549999999996
C      48.336550000000010     47.855209999999992     49.441449999999996
C      47.766150000000003     51.866979999999991     49.784849999999999
C      47.332450000000001     48.943949999999994     50.971250000000005
C      48.766950000000001     50.625489999999992     49.371150000000007
C      48.337949999999999     49.223639999999982     50.027650000000001
C      50.398150000000008     48.865959999999994     46.478749999999998
C      50.484950000000005     47.772389999999987     45.620349999999995
C      49.847650000000009     46.486992999999991     45.928549999999994
C      48.871250000000011     46.521724999999989     47.133450000000003
C      45.338650000000008     52.166899999999991     50.869350000000004
C      44.440150000000010     51.828909999999993     51.735450000000007
C      44.344150000000006     50.485479999999988     52.273149999999994
C      45.356749999999998     49.504579999999990     51.894749999999995
C      51.133050000000004     50.153409999999987     46.333850000000005
C      51.842750000000002     50.330489999999990     45.064150000000005
C      51.307150000000000     48.134049999999988     44.455850000000005
C      49.251049999999999     52.099419999999988     49.972050000000003
C      50.727350000000008     51.103779999999993     47.508249999999997
C      47.539149999999999     46.528591999999989     49.858550000000001
C      47.847650000000009     45.298949999999998     48.818050000000007
C      47.856550000000006     45.450050000000005     47.330949999999994
C      46.540250000000007     45.030349999999991     47.837449999999997
C      51.464550000000010     52.414859999999997     47.847850000000001
C      46.386450000000004     43.666449999999990     47.241949999999996
C      45.814349999999997     46.389057999999991     50.157750000000000
H      52.093350000000008     49.881019999999985     43.037450000000000
H      47.502550000000006     52.528509999999990     48.899949999999997
H      47.288550000000008     48.064009999999989     51.644449999999999
H      49.755850000000002     45.669854799999989     45.130450000000003
H      45.293750000000010     53.229619999999990     50.636249999999997
H      43.592149999999997     52.402499999999996     51.822449999999996
H      43.483150000000002     50.018229999999988     52.962550000000000
H      45.552550000000004     48.615879999999990     52.283949999999997
H      52.171050000000001     51.373569999999994     44.849150000000002
H      51.473950000000009     47.182749999999992     43.855349999999994
H      49.448950000000004     53.106049999999989     49.317550000000004
H      49.609150000000007     52.431729999999995     51.023649999999996
H      48.149050000000010     46.058976999999992     50.766650000000006
H      48.538150000000009     44.525049999999993     49.108349999999994
H      48.162050000000001     44.388749999999987     46.983449999999998
H      45.568649999999998     45.338549999999991     48.273149999999994
H      52.516849999999998     52.494679999999995     47.841150000000006
H      51.265050000000009     53.269249999999992     46.868550000000006
H      51.202550000000009     52.808940000000000     48.879250000000006
H      46.964950000000009     42.730750000000008     47.475649999999995
H      45.430550000000004     43.425550000000008     46.613650000000000
H      45.688450000000010     45.373050000000006     50.435449999999996
H      45.600050000000003     47.101649999999992     50.735650000000000
H      45.276649999999997     46.930539999999993     49.310449999999996
N      51.693350000000002     49.434469999999990     43.981649999999995
