5

C      48.333649999999992     47.887899999999995     47.952199999999991
H      48.753450000000001     47.070300000000003     47.138100000000001
H      48.468950000000007     48.929699999999997     48.182200000000002
H      47.246549999999999     48.090000000000003     47.649200000000000
H      48.061350000000004     47.671199999999999     48.861899999999999
