22

C      48.426599999999993     48.729949999999988     50.659949999999995
C      47.388100000000001     47.622749999999996     50.457349999999998
C      49.283800000000006     49.011750000000006     49.283949999999997
C      46.729599999999998     47.093750000000000     49.180050000000001
C      48.464000000000006     48.343750000000000     48.161949999999997
C      47.433900000000001     47.478949999999998     48.038049999999991
C      49.227700000000006     48.605450000000005     46.890549999999998
C      47.066700000000004     46.898150000000001     46.717250000000000
C      48.697200000000002     48.112549999999999     45.591050000000003
C      47.633400000000002     47.193250000000006     45.448749999999997
H      48.309000000000005     49.582949999999997     51.125049999999995
H      49.296299999999995     48.496350000000007     51.374450000000003
H      47.595800000000004     46.755650000000003     51.099749999999993
H      46.460100000000004     47.710049999999995     51.013849999999998
H      49.308700000000009     49.992850000000004     49.048049999999996
H      50.347799999999999     48.933850000000007     49.379849999999998
H      46.578400000000002     46.007149999999996     49.140749999999990
H      45.652200000000001     47.422750000000008     48.954349999999998
H      50.136000000000003     49.284450000000007     46.872549999999997
H      46.383600000000001     46.215350000000001     46.279949999999992
H      49.274099999999997     48.403649999999999     44.639649999999996
H      47.038800000000002     46.744450000000001     44.625549999999997
