55

C      46.589899999999993     48.605249999999998     44.727949999999993
C      49.157699999999991     50.194949999999999     51.592250000000000
C      46.461900000000000     47.151649999999997     45.021750000000004
C      49.163699999999992     48.749450000000003     51.796450000000000
C      46.749099999999999     49.713249999999995     45.714750000000002
C      48.404499999999999     50.569750000000006     50.446050000000000
C      46.527999999999992     45.425949999999993     46.869550000000004
C      48.522399999999990     46.383550000000007     51.220350000000003
C      46.525899999999993     44.940050000000006     48.161049999999996
C      47.874699999999990     45.328349999999993     50.486449999999998
C      47.132300000000001     50.138250000000006     48.176749999999998
C      46.477099999999993     46.843650000000004     46.396950000000004
C      48.570200000000000     47.836850000000005     50.824849999999998
C      47.253900000000002     45.732449999999993     49.256950000000003
C      46.870899999999992     49.253049999999995     47.074950000000001
C      47.720399999999998     49.708250000000000     49.471450000000004
C      46.891399999999990     47.767149999999994     47.495950000000001
C      47.777199999999993     48.221049999999998     49.621050000000004
C      47.295499999999990     47.208250000000000     48.773750000000000
C      46.258099999999999     49.166549999999994     43.306350000000002
C      45.817699999999988     48.120349999999995     42.401049999999998
C      45.547199999999989     46.805150000000005     42.756149999999998
C      46.011099999999999     46.027849999999994     44.043350000000004
C      46.173099999999991     44.594450000000002     44.506750000000004
C      46.528099999999995     44.363549999999996     45.840949999999999
C      49.997699999999995     51.224349999999994     52.136350000000000
C      50.961999999999989     50.994850000000007     53.296749999999996
C      50.753399999999999     49.674749999999996     53.624050000000004
C      49.939699999999988     48.621249999999996     52.987249999999996
C      46.649299999999997     51.229449999999993     45.604850000000006
C      46.225699999999989     51.861449999999998     44.272449999999999
C      46.359200000000001     50.688049999999997     43.039549999999998
C      44.846299999999999     44.823550000000004     48.403449999999999
H      48.187799999999996     51.468049999999998     49.962450000000011
H      48.931500000000000     46.161049999999996     52.146850000000008
H      46.810599999999994     44.004150000000003     48.333449999999999
H      47.315500000000000     51.341850000000001     47.902250000000002
H      45.548899999999989     48.609249999999996     41.625149999999998
H      44.914199999999994     45.855150000000002     42.145450000000004
H      45.740699999999990     43.832250000000002     43.919449999999998
H      46.582899999999995     43.426949999999998     46.376950000000001
H      49.826200000000000     52.364550000000001     51.779650000000011
H      51.678100000000001     51.752249999999997     53.903050000000000
H      51.569299999999998     49.576150000000005     54.374850000000002
H      49.914999999999992     47.471349999999994     53.181449999999998
H      47.594099999999997     51.754250000000006     46.119350000000004
H      45.907399999999996     51.619750000000003     46.339050000000000
H      45.156999999999996     52.183150000000005     44.264350000000000
H      47.004300000000001     52.573050000000002     44.151750000000000
H      47.370699999999999     50.670549999999999     42.387450000000001
H      45.531799999999990     51.039549999999998     42.371350000000000
H      44.735799999999998     44.524450000000002     49.450850000000003
H      44.699500000000000     45.863750000000003     48.289250000000003
H      44.321899999999999     44.280749999999998     47.796050000000001
H      47.914199999999994     44.303449999999998     50.822150000000001
