22

C      48.588249999999988     47.803749999999987     46.292499999999997
C      47.115649999999995     47.933049999999994     45.588600000000000
C      47.341650000000001     49.149050000000003     47.946200000000005
C      46.096049999999998     47.436849999999993     46.890299999999996
C      48.287949999999995     48.133049999999997     47.826300000000003
C      47.043949999999995     47.489549999999994     48.156199999999998
C      49.500949999999996     47.614850000000004     48.617499999999993
C      46.741849999999999     47.075949999999992     49.506000000000000
C      49.302849999999999     46.909849999999992     49.795599999999993
C      47.894250000000000     46.668149999999997     50.203500000000005
H      49.169750000000001     48.507350000000002     45.944599999999994
H      48.650749999999995     46.764849999999996     46.135800000000003
H      47.120449999999998     47.115849999999995     44.786699999999996
H      47.164049999999996     49.014550000000000     45.260599999999997
H      46.358649999999997     49.681349999999995     48.332200000000000
H      47.920949999999998     49.953249999999997     47.631199999999993
H      45.386350000000000     48.215350000000001     47.096400000000003
H      45.428149999999995     46.752749999999992     46.652000000000001
H      50.613650000000000     47.773250000000004     48.594300000000004
H      45.698149999999998     47.262150000000005     49.820599999999999
H      50.121450000000003     46.560249999999996     50.481399999999994
H      47.851450000000000     46.046750000000003     51.213300000000004
