16

C      48.120384999999999     49.114513499999994     46.197549999999993
C      46.602885000000001     46.289113499999999     47.470250000000000
C      47.510554999999997     48.363813499999992     48.311050000000002
C      48.406215000000003     49.244413499999993     47.564850000000000
C      49.561385000000001     50.010571499999998     48.124950000000005
C      46.409665000000004     47.380513499999992     48.325550000000000
C      49.528234999999995     49.669313500000001     49.561749999999996
C      48.213084999999992     49.098413499999992     49.509050000000002
H      48.475665000000006     49.793313499999996     45.489849999999997
H      47.014785000000003     48.806513499999994     45.914850000000001
H      47.648915000000002     46.414213500000002     46.907050000000005
H      46.187925000000007     45.328113500000001     47.770450000000004
H      50.185144999999991     50.671886499999999     47.694750000000006
H      45.814855000000009     46.931613499999997     49.175050000000006
H      50.146384999999995     50.081898499999994     50.375949999999996
H      48.220044999999999     48.717313500000003     50.510150000000003
