43

C      50.096649999999983     45.659199999999998     46.600099999999998
C      49.805250000000001     46.446699999999993     47.732900000000001
C      49.343849999999989     49.157399999999996     47.879700000000000
C      49.569449999999989     47.851199999999992     47.173500000000004
C      49.520550000000000     47.789500000000004     45.650499999999994
C      49.962350000000001     46.485799999999998     45.421999999999997
C      48.342649999999992     50.139600000000002     47.033699999999996
C      45.429049999999989     51.092399999999998     49.577100000000002
C      47.492249999999999     49.666100000000000     50.077900000000000
C      46.276449999999997     51.312799999999996     48.135199999999998
C      45.990849999999995     49.809600000000003     50.025499999999994
C      47.022849999999991     50.059699999999992     47.616799999999998
C      46.625649999999993     49.040899999999993     48.735199999999992
C      47.029349999999994     49.411299999999997     46.198099999999997
C      46.247749999999996     47.535599999999988     48.500199999999992
C      46.694949999999992     47.883699999999990     46.087499999999991
C      46.156349999999989     46.999099999999999     47.114899999999992
C      49.925449999999998     44.781499999999994     50.652000000000001
C      50.850250000000003     46.476099999999988     48.886299999999991
C      49.989249999999998     46.058699999999988     50.177099999999996
H      50.064849999999993     44.523600000000002     46.449500000000000
H      48.817749999999990     46.018299999999996     48.053600000000003
H      50.228549999999998     49.591399999999993     48.342199999999991
H      49.369649999999993     48.676500000000004     44.989099999999993
H      50.210349999999991     46.229499999999987     44.386200000000002
H      48.963349999999991     50.832799999999992     46.472200000000001
H      49.085849999999994     49.016399999999990     48.893699999999995
H      45.616249999999994     51.992999999999995     50.192300000000003
H      44.377749999999992     51.107900000000001     49.484899999999996
H      47.730750000000000     50.742000000000004     50.319499999999991
H      48.052849999999992     48.859600000000000     50.636699999999990
H      45.577849999999998     51.545199999999994     47.278300000000002
H      47.109349999999992     51.988900000000001     48.158299999999997
H      45.554749999999999     49.253299999999996     50.983499999999992
H      47.318349999999995     50.108800000000002     45.424399999999991
H      45.831750000000000     46.805499999999995     49.095599999999990
H      46.500349999999997     47.361499999999992     45.140299999999996
H      45.913849999999996     45.861300000000000     46.887400000000000
H      49.379750000000001     44.623800000000003     51.613799999999998
H      50.539450000000002     44.007000000000005     50.336399999999998
H      51.086249999999993     47.512000000000000     48.829999999999998
H      51.622250000000008     45.717500000000001     48.706399999999988
H      49.371049999999997     47.040499999999994     50.543499999999995
