8

C      47.988749999999989     47.501299999999993     47.260399999999997
C      48.145550000000000     48.424699999999987     48.671800000000005
H      49.043250000000000     49.000099999999989     48.166100000000000
H      48.404949999999999     48.107999999999997     46.381900000000002
H      46.956750000000000     47.034399999999998     46.975800000000007
H      48.324349999999995     47.983699999999999     49.618099999999998
H      47.267749999999992     49.103500000000004     48.665300000000002
H      48.623350000000002     46.896499999999996     47.756600000000006
