22

C      46.316399999999987     49.816249999999997     50.312249999999992
C      49.210700000000003     47.508350000000007     49.590550000000000
C      47.414699999999996     48.989750000000001     50.109950000000005
C      50.451400000000007     48.446950000000001     50.143049999999995
C      48.069900000000004     48.091149999999999     49.080050000000007
C      47.613300000000010     47.517350000000008     47.757449999999999
C      48.012000000000000     46.461849999999998     46.845350000000003
C      46.278599999999997     47.828749999999999     47.212049999999998
C      47.014499999999998     46.189949999999996     45.835450000000002
C      45.794600000000003     47.117649999999998     46.136150000000008
H      50.740800000000007     47.551450000000003     50.974550000000001
H      46.625800000000012     50.658050000000003     50.940249999999999
H      45.422399999999996     50.284949999999995     49.948450000000001
H      49.872799999999998     46.656649999999999     49.107850000000006
H      48.837300000000013     46.989950000000007     50.501950000000001
H      48.037000000000006     49.278350000000003     50.951650000000008
H      50.299099999999996     49.279049999999998     50.865850000000002
H      51.172700000000006     48.797950000000000     49.322150000000001
H      48.686800000000005     45.773250000000004     47.121350000000000
H      45.462999999999994     48.436450000000008     47.652049999999996
H      46.862100000000012     45.341949999999997     45.025449999999999
H      44.827299999999994     46.981849999999994     45.725749999999998
