22

C      49.465339999999998     50.100649999999987     48.497599999999998
C      48.841239999999999     49.805250000000001     49.780299999999997
C      48.732740000000007     49.503749999999997     47.500799999999998
C      47.521839999999997     48.754649999999998     49.800399999999996
C      47.886939999999996     48.239249999999998     47.309399999999997
C      47.211259999999996     47.728049999999996     48.563900000000004
C      46.546000000000006     46.413650000000004     48.762900000000002
C      47.741540000000001     47.566749999999999     46.071799999999996
C      46.345370000000003     45.909549999999996     47.440500000000000
C      46.944940000000003     46.293250000000000     46.150500000000008
H      50.225939999999994     49.195549999999997     48.492300000000000
H      49.792940000000002     51.058350000000004     48.489199999999997
H      49.668340000000001     49.049250000000001     50.357300000000009
H      48.661439999999999     50.660650000000004     50.517000000000010
H      49.538439999999994     49.629549999999995     46.851399999999998
H      47.822940000000003     50.227750000000000     47.193399999999997
H      47.674540000000007     48.202349999999996     50.753500000000003
H      46.730580000000003     49.406850000000006     50.263900000000007
H      45.774060000000006     45.831149999999994     49.408200000000008
H      48.237840000000006     48.238050000000001     45.246499999999997
H      45.955669999999998     44.941649999999996     47.662900000000008
H      46.685190000000006     45.368449999999996     45.293599999999998
