38

C      45.501949999999994     47.235399999999984     51.492799999999995
C      46.969149999999992     49.271899999999995     52.163899999999998
C      47.042849999999994     47.202099999999994     47.340500000000006
C      46.248749999999994     47.239100000000001     50.192599999999999
C      48.064049999999988     46.763299999999994     48.613600000000005
C      46.450550000000000     48.213000000000001     51.223600000000005
C      47.690849999999990     46.762799999999991     50.112099999999998
C      49.548049999999996     47.046500000000002     48.177199999999999
C      49.008549999999993     45.762599999999999     47.988600000000005
C      48.775249999999993     47.675400000000003     44.167299999999997
C      50.255849999999988     48.478999999999992     47.131900000000002
C      48.861549999999987     49.068300000000001     44.741600000000005
C      49.241149999999998     49.259799999999991     46.191000000000003
C      48.134349999999991     50.169300000000000     44.061399999999992
C      48.878149999999998     50.399999999999999     46.966099999999997
C      47.721950000000000     51.010199999999990     46.382599999999996
C      47.590449999999997     51.120500000000000     44.951700000000002
C      48.939249999999994     45.084399999999995     46.498699999999999
H      45.005749999999999     46.911399999999993     52.387000000000000
H      48.165249999999993     49.258699999999997     52.310999999999993
H      46.756249999999987     48.930799999999998     53.135000000000005
H      47.454949999999990     47.053300000000000     46.352000000000004
H      46.133649999999996     46.543900000000001     47.669899999999998
H      46.810649999999988     50.414999999999999     51.687500000000000
H      48.329449999999987     46.390899999999995     50.970600000000005
H      50.228249999999996     46.969900000000003     48.979299999999995
H      49.207949999999990     44.911799999999992     48.768699999999995
H      48.711149999999996     46.886900000000004     44.882800000000003
H      48.187249999999999     47.536200000000001     43.311300000000003
H      50.994250000000001     47.914999999999999     46.626899999999992
H      50.900249999999993     49.231500000000004     47.826700000000002
H      48.046649999999993     50.071700000000000     42.864999999999995
H      49.461549999999995     50.661200000000001     48.010899999999992
H      47.369049999999994     51.686399999999999     47.060800000000000
H      47.250549999999997     51.862000000000002     44.288600000000002
H      48.308649999999993     45.474499999999999     45.861000000000004
H      46.782750000000000     48.264599999999994     47.306799999999996
O      49.674249999999994     44.137999999999998     46.257700000000000
