15

C      48.112434999999991     48.296599999999984     48.517799999999994
C      46.868234999999984     48.320999999999991     47.626799999999996
C      46.877434999999991     47.422799999999995     46.721800000000009
C      48.059634999999986     46.597299999999997     46.276299999999999
C      49.241819999999990     47.575099999999999     48.129799999999996
C      47.868134999999995     48.704699999999995     50.023500000000006
H      48.604434999999995     48.205700000000000     50.614500000000000
H      50.070404999999994     46.474499999999999     46.534799999999997
H      45.906634999999994     48.882100000000001     47.836700000000000
H      46.059434999999993     47.333199999999998     46.149900000000009
H      47.966034999999991     46.121699999999997     45.385500000000000
H      50.093365000000006     47.392299999999999     48.666699999999999
H      46.863934999999984     48.242699999999992     50.452000000000005
H      47.673434999999984     49.878300000000003     50.143499999999996
N      49.193060000000003     46.925699999999999     46.938899999999997
