6

C      48.392799999999987     48.422299999999993     48.416349999999994
C      47.669299999999993     47.583300000000008     47.491350000000004
H      49.061800000000005     49.220600000000005     48.011649999999996
H      48.140099999999997     48.342799999999997     49.572749999999999
H      47.920099999999998     47.570200000000000     46.427250000000001
H      46.938199999999995     46.779399999999995     47.846950000000000
