21

C      47.504199999999997     50.902449999999988     47.738249999999994
C      47.235099999999996     45.394150000000003     48.895249999999997
C      49.838299999999997     45.808249999999994     49.162550000000003
C      48.843300000000006     47.403749999999995     49.102650000000004
C      47.581099999999999     49.411949999999997     47.470550000000003
C      48.095500000000008     48.365050000000004     48.123749999999994
C      47.219200000000008     47.896449999999994     47.245049999999999
C      48.633100000000006     46.060150000000000     48.497549999999997
C      46.353299999999997     46.809750000000001     46.755050000000004
C      46.177900000000001     45.895949999999992     47.870150000000002
H      46.469200000000008     51.323749999999997     47.859750000000005
H      47.639500000000005     51.500049999999995     46.830850000000005
H      47.185600000000001     45.346950000000000     50.041249999999998
H      48.151299999999999     51.639350000000000     48.225750000000005
H      50.812599999999996     45.976449999999993     48.631949999999996
H      49.497099999999996     45.162349999999996     50.178649999999998
H      49.857300000000002     48.033449999999995     49.158750000000005
H      47.411800000000007     44.360650000000000     48.753750000000004
H      48.544199999999996     45.886949999999992     47.390950000000004
H      45.793700000000008     46.957149999999992     45.821350000000002
H      45.187400000000004     45.387849999999993     47.999650000000003
