15

C      49.206599999999987     48.921099999999996     45.908149999999992
C      49.390199999999993     49.785799999999995     47.208250000000000
C      48.259599999999992     47.783100000000005     48.153249999999993
C      49.199600000000004     48.335799999999992     47.299249999999994
C      48.518500000000003     46.651299999999992     49.151450000000004
C      46.828000000000003     47.884399999999999     48.632050000000000
C      47.419799999999995     46.208299999999994     49.988650000000000
C      46.394300000000001     47.255299999999991     49.896250000000002
H      50.276899999999998     48.960300000000004     45.280450000000002
H      48.310599999999994     49.248300000000000     45.390149999999998
H      49.680799999999991     50.691699999999997     47.876849999999997
H      49.403300000000002     46.052700000000002     49.005150000000000
H      46.006599999999992     48.703000000000003     48.254250000000006
H      47.605499999999992     45.308300000000003     50.487450000000003
H      45.723100000000002     47.648299999999992     50.719549999999998
