22

C      48.310465000000001     50.197400000000002     46.960249999999995
C      49.119975000000011     49.281499999999994     46.151450000000004
C      48.206265000000002     49.725999999999999     48.504149999999996
C      49.132765000000006     47.708399999999997     46.521149999999999
C      47.830429000000002     48.213899999999995     48.878550000000004
C      48.056925000000007     47.393699999999995     47.645250000000004
C      46.957975000000026     47.694400000000002     49.896450000000002
C      47.589383000000005     46.086100000000002     47.641249999999999
C      46.449675000000013     46.356700000000004     49.838549999999998
C      46.719675000000024     45.652900000000002     48.718850000000003
H      48.480035000000015     51.361199999999997     46.876449999999998
H      47.265279000000007     50.101299999999995     46.282450000000004
H      50.034475000000015     49.895299999999992     46.341850000000001
H      48.969634999999997     49.472499999999997     45.206949999999999
H      47.491880000000002     50.422299999999993     49.102250000000012
H      49.220395000000011     49.751400000000004     48.893550000000005
H      48.848265000000012     46.920299999999997     45.640450000000001
H      50.196825000000004     47.280699999999996     46.786149999999999
H      46.803275000000006     48.616500000000002     50.640350000000005
H      47.641004000000002     45.268000000000001     46.953650000000003
H      45.803174999999996     46.223500000000001     50.793050000000001
H      46.519474999999986     44.638800000000003     48.594450000000002
