22

C      48.795059999999999     47.018499999999989     46.067949999999996
C      49.425160000000005     45.949700000000007     47.214050000000000
C      48.994259999999997     48.336299999999994     46.459350000000001
C      48.540560000000006     46.364100000000008     48.579949999999997
C      47.824760000000005     48.629700000000000     47.635750000000002
C      47.540560000000006     47.610100000000003     48.530549999999991
C      47.190960000000004     49.937700000000007     47.622050000000002
C      46.653960000000005     47.701700000000002     49.708449999999999
C      46.287760000000006     49.920400000000001     48.784449999999993
C      46.001660000000001     49.061400000000006     49.838449999999995
H      49.184560000000005     46.775599999999997     45.155950000000004
H      47.882760000000005     46.810100000000006     45.409250000000000
H      49.741759999999999     44.948999999999998     46.847649999999987
H      50.514859999999999     46.396000000000001     47.334449999999990
H      49.938260000000000     48.467000000000013     46.918449999999993
H      48.802560000000000     49.080299999999994     45.760049999999993
H      47.891260000000003     45.451300000000003     48.956350000000000
H      49.273260000000008     46.701599999999999     49.410150000000002
H      47.637960000000007     50.920299999999997     47.107349999999997
H      46.798760000000001     46.988600000000005     50.623949999999994
H      46.148460000000000     51.051000000000002     48.813749999999999
H      45.485140000000001     49.361100000000008     50.844049999999996
