16

C      48.542074999999997     49.962749999999993     48.606199999999987
C      46.941665000000000     49.262749999999997     46.709500000000006
C      48.321494999999999     48.292050000000003     46.842799999999997
C      47.731804999999994     49.041449999999998     47.983000000000004
C      49.210894999999994     47.161649999999995     46.909300000000002
C      47.408175000000000     47.941850000000002     48.966300000000004
C      48.695404999999994     46.114549999999994     47.827500000000001
C      47.734234999999998     46.563149999999993     48.771700000000010
H      48.647944999999993     50.854749999999996     48.089600000000004
H      49.353475000000003     49.843850000000003     49.276400000000010
H      46.457304999999991     50.299449999999993     47.030799999999999
H      46.062015000000002     48.573849999999993     46.507400000000004
H      49.937984999999998     46.892250000000004     46.146299999999997
H      46.825544999999991     48.361450000000005     49.853700000000003
H      48.563845000000001     45.145250000000004     47.621300000000005
H      47.522544999999994     45.735349999999997     49.480400000000003
