26

C      46.889299999999984     47.452349999999996     49.619549999999990
C      48.286299999999997     47.208649999999999     50.142150000000001
C      46.947699999999998     50.533250000000002     45.695849999999993
C      49.343199999999996     50.622549999999997     46.716650000000001
C      46.863799999999998     48.236750000000008     48.242449999999991
C      49.265499999999989     48.217750000000002     49.748249999999999
C      47.914199999999994     49.831250000000004     46.397149999999996
C      50.026799999999994     49.983150000000002     47.730049999999991
C      47.839099999999995     49.123049999999999     47.763549999999995
C      49.045899999999989     49.008450000000003     48.614549999999994
C      45.820699999999995     46.443950000000008     49.722349999999992
C      46.116899999999994     45.458649999999999     50.773850000000010
C      47.436099999999996     45.499450000000003     51.403050000000007
C      48.557899999999989     46.206250000000004     51.162950000000009
C      47.441899999999990     49.389850000000003     44.955349999999996
H      46.360799999999998     50.756350000000005     46.600549999999998
H      49.940099999999994     51.268250000000002     46.006550000000004
H      46.226099999999995     48.106550000000006     47.318150000000003
H      50.424099999999996     48.372149999999998     49.991050000000001
H      51.092600000000004     50.085950000000004     47.922449999999998
H      44.907399999999996     46.780250000000002     49.355049999999991
H      45.159899999999993     44.772050000000000     50.828350000000000
H      47.457299999999989     44.731749999999998     52.130650000000003
H      49.690299999999993     46.082249999999995     51.283249999999995
H      47.253799999999998     49.723949999999995     43.869349999999997
H      46.868599999999994     48.410950000000007     45.086050000000000
