22

C      48.182800000000000     47.583949999999987     45.925349999999995
C      49.498500000000007     48.511150000000001     45.586350000000003
C      47.292000000000002     46.534549999999996     47.888150000000003
C      49.816299999999998     49.398049999999998     46.933950000000003
C      47.857799999999997     47.792850000000001     47.393949999999997
C      48.717900000000000     48.808250000000001     47.947949999999999
C      46.220100000000002     47.800250000000005     47.918050000000001
C      48.655000000000001     49.141049999999993     49.294249999999998
C      46.090000000000003     48.569649999999996     49.247350000000004
C      47.286000000000001     48.938950000000006     49.965150000000001
H      48.016000000000005     46.463149999999999     45.817150000000005
H      47.410700000000006     47.659550000000010     45.157549999999993
H      49.235200000000006     49.460549999999998     44.926849999999995
H      50.367000000000004     48.047650000000004     45.386450000000004
H      46.772599999999997     45.697649999999996     47.278449999999999
H      47.728999999999999     46.227750000000000     48.884250000000002
H      50.256299999999996     50.302350000000004     46.688349999999993
H      50.778499999999994     48.993549999999999     47.329950000000004
H      45.467799999999997     48.073350000000005     47.225850000000001
H      49.560800000000000     49.334950000000006     49.850649999999995
H      45.221500000000006     48.903250000000000     49.741750000000003
H      47.264700000000005     49.432850000000002     51.073150000000005
