17

C      47.997949999999989     49.177449999999993     46.594349999999991
C      48.546450000000000     46.457150000000006     45.852849999999997
C      47.955149999999996     47.544950000000007     48.113650000000000
C      48.213749999999997     47.840849999999996     46.674550000000004
C      48.862149999999993     46.628350000000005     48.805450000000000
C      46.906950000000002     48.041149999999995     49.013449999999999
C      48.510849999999998     46.639649999999996     50.245849999999997
C      47.223649999999999     47.408149999999999     50.303450000000005
H      50.016050000000000     45.858950000000000     46.022249999999993
H      48.221349999999994     49.224449999999997     45.478349999999999
H      47.952850000000005     50.168450000000000     47.060349999999993
H      48.774750000000004     46.448450000000001     44.671050000000001
H      47.627950000000006     45.831550000000000     45.946949999999994
H      49.754550000000002     46.074450000000006     48.448749999999997
H      45.983950000000000     48.542449999999995     48.682049999999997
H      48.882849999999998     45.921950000000002     51.047949999999993
H      46.807150000000000     47.300350000000002     51.328949999999999
