77

C      45.489199999999983     48.397649999999999     51.928749999999994
C      41.483399999999996     42.933949999999996     43.792649999999995
C      44.536200000000001     47.211349999999996     51.590649999999997
C      42.179899999999996     42.393550000000005     44.894449999999992
C      46.241399999999992     48.835049999999995     50.861549999999994
C      42.030099999999997     44.037450000000007     43.012450000000001
C      44.599299999999992     46.691450000000003     50.292850000000001
C      43.238700000000001     43.014650000000003     45.638350000000003
C      47.150500000000001     49.108450000000005     48.488749999999996
C      46.616999999999997     48.684049999999999     47.019849999999991
C      45.548999999999999     47.381250000000009     45.223249999999993
C      44.318700000000000     45.695149999999998     47.352049999999991
C      46.345899999999993     48.338350000000005     49.472650000000002
C      42.951199999999993     44.842550000000003     43.847149999999999
C      45.924499999999988     47.476250000000007     46.603149999999999
C      44.601799999999990     46.455150000000003     44.817149999999998
C      45.521200000000000     47.108249999999998     49.197149999999993
C      43.393099999999997     44.362650000000002     45.080849999999998
C      45.264899999999990     46.660849999999996     47.753249999999994
C      44.268099999999997     45.390349999999998     45.862949999999998
C      43.525799999999997     45.651250000000005     49.875649999999993
C      43.447600000000001     45.280450000000002     48.505949999999999
C      43.924900000000001     45.987850000000009     53.541150000000002
C      43.482299999999988     46.293850000000006     52.085449999999994
C      42.768200000000000     45.302250000000001     51.201949999999997
C      47.148299999999999     50.158450000000002     50.700749999999999
C      47.501899999999999     50.461849999999998     49.093750000000000
C      48.306499999999993     48.733149999999995     47.537750000000003
C      41.885799999999996     46.576650000000001     52.109250000000003
C      48.910599999999995     51.433549999999997     48.944450000000003
C      49.865999999999993     50.444450000000003     49.330550000000002
C      53.732599999999998     52.882750000000001     51.640050000000002
C      54.170899999999996     52.061949999999996     50.159949999999995
C      52.269199999999991     52.473950000000002     52.087750000000000
C      53.364100000000001     50.641549999999995     49.883949999999999
C      51.420600000000000     52.498750000000001     50.620549999999994
C      52.128699999999988     51.309049999999999     49.670850000000002
C      50.834599999999988     50.959350000000001     50.457549999999998
C      52.060799999999993     51.924750000000003     48.296149999999997
C      50.923699999999990     53.523550000000000     49.577649999999991
C      51.387999999999998     53.108249999999998     48.221149999999994
H      45.460299999999997     49.017949999999999     52.770149999999987
H      40.661200000000001     42.383250000000004     43.196349999999995
H      42.014399999999988     41.412350000000004     45.735749999999996
H      41.803599999999996     44.071750000000009     41.794849999999997
H      43.750599999999999     42.767150000000001     46.552349999999990
H      46.618499999999990     49.207149999999999     46.032049999999998
H      44.163799999999988     46.924250000000001     42.908949999999990
H      45.852299999999993     48.150549999999996     44.510750000000002
H      42.787599999999991     44.449349999999995     48.174549999999996
H      43.235299999999988     45.426550000000006     54.172749999999994
H      44.654899999999991     45.260550000000009     53.409949999999995
H      44.141299999999994     46.913449999999997     54.205150000000003
H      42.657199999999996     44.208449999999999     51.439650000000000
H      47.841099999999990     50.237350000000006     51.336449999999999
H      46.323000000000000     50.912050000000008     50.951049999999995
H      46.710099999999990     51.271850000000001     48.966049999999996
H      48.871299999999998     48.012850000000000     48.149249999999995
H      48.702700000000000     49.604950000000002     47.013249999999999
H      50.609899999999989     49.946849999999998     48.570049999999995
H      48.854599999999998     52.262249999999995     49.698049999999995
H      49.001299999999993     52.047749999999994     47.947350000000000
H      49.290799999999997     49.658450000000002     49.739949999999993
H      54.135500000000000     53.782049999999998     51.090350000000001
H      54.542399999999994     52.784549999999996     52.523449999999997
H      54.303199999999997     52.876850000000005     49.448449999999994
H      55.338799999999999     51.804050000000004     50.364049999999992
H      52.548200000000001     51.509950000000003     52.367350000000002
H      51.984400000000001     53.246850000000009     52.792949999999990
H      53.549599999999991     50.051949999999991     48.960650000000001
H      52.810600000000001     50.155749999999998     50.827550000000002
H      50.441499999999998     50.525549999999996     51.393949999999990
H      52.557299999999991     51.459649999999996     47.488549999999989
H      50.962699999999991     54.587649999999996     49.502650000000003
H      51.234699999999997     53.741050000000001     47.282150000000001
N      43.658600000000000     46.187449999999998     43.710549999999998
O      40.993999999999993     47.236550000000008     52.023650000000004
