68

C      49.797449999999991     49.560799999999993     48.476049999999994
C      48.427550000000004     49.034400000000005     48.005549999999999
C      48.156350000000003     44.160799999999995     53.152649999999994
C      46.797950000000000     43.704899999999995     50.849549999999994
C      50.491150000000005     48.661400000000000     49.555850000000007
C      47.483750000000001     48.024699999999996     48.221450000000004
C      47.965049999999998     45.492800000000003     53.575649999999996
C      47.102450000000005     44.635900000000007     49.990650000000002
C      49.509350000000005     45.901200000000003     49.785750000000007
C      48.118450000000003     45.740600000000001     50.252949999999998
C      49.813450000000003     47.294600000000003     49.324849999999998
C      48.551349999999999     46.696100000000001     48.900949999999995
C      49.217250000000000     45.880600000000001     51.199550000000002
C      48.968450000000004     45.183400000000006     52.569950000000006
C      50.459750000000000     50.682299999999998     47.835949999999997
C      51.398850000000010     50.683300000000003     46.702449999999999
C      49.409450000000000     50.847499999999997     46.729950000000002
C      48.262650000000001     49.957599999999999     46.787949999999995
C      45.648850000000003     44.050600000000003     51.834450000000004
C      49.726350000000004     43.914000000000001     52.729950000000002
C      49.825949999999992     49.668499999999995     50.167050000000003
C      50.448250000000002     51.204400000000007     50.390550000000005
C      50.844149999999999     51.840999999999994     48.898550000000000
C      46.443950000000001     47.480699999999999     47.380049999999997
C      46.041950000000000     48.769999999999996     46.423450000000003
C      47.042749999999998     49.546800000000005     45.963349999999998
C      45.638050000000000     44.377399999999994     50.405649999999994
C      46.888150000000003     43.317300000000003     52.375749999999996
C      52.043849999999992     48.318399999999997     50.020250000000004
C      47.339849999999998     48.761200000000002     44.532750000000000
C      46.310850000000002     47.923500000000004     49.058650000000000
C      45.890250000000002     48.588600000000000     43.566050000000004
C      50.058750000000003     53.242800000000003     49.054450000000003
C      44.277450000000002     43.896400000000000     52.591149999999999
C      50.251649999999998     44.518500000000003     49.323149999999998
H      47.280149999999999     46.125699999999995     53.440449999999998
H      49.182050000000004     51.788600000000002     46.133550000000000
H      50.487349999999992     43.990499999999997     53.515450000000001
H      48.986449999999998     49.560000000000002     50.999949999999998
H      51.474850000000004     51.113000000000000     51.023350000000001
H      49.540350000000004     51.629499999999993     50.926850000000002
H      51.920850000000002     51.967500000000001     48.778449999999999
H      46.173850000000002     46.629000000000005     47.017749999999999
H      45.311350000000004     49.416399999999996     46.808750000000003
H      45.457650000000001     48.485600000000005     45.424450000000000
H      46.823750000000004     50.576700000000002     45.523049999999998
H      52.288049999999998     49.322900000000004     50.403750000000002
H      52.571950000000001     47.972800000000007     49.164150000000006
H      51.740250000000003     47.578100000000006     50.708950000000002
H      47.748850000000004     47.894800000000004     44.691150000000000
H      48.181350000000002     49.284000000000006     44.001549999999995
H      45.719450000000002     48.733300000000000     48.928049999999999
H      46.283150000000006     47.244699999999995     49.766249999999999
H      46.115750000000006     48.645799999999994     42.424350000000004
H      45.252350000000000     49.511399999999995     43.625950000000003
H      45.749949999999998     47.596199999999996     43.885249999999999
H      48.948050000000002     53.257400000000004     49.542249999999996
H      49.900750000000002     53.625900000000001     47.921650000000000
H      50.431950000000001     53.686199999999999     49.889550000000000
H      44.200249999999997     42.972600000000000     53.548150000000000
H      44.179650000000002     44.705699999999993     53.224950000000007
H      43.428049999999999     43.743600000000001     51.942350000000005
H      51.173950000000005     44.811700000000002     50.090850000000003
H      50.927650000000000     44.152900000000002     48.493449999999996
H      49.223350000000003     44.110699999999994     48.857649999999992
H      50.173650000000009     43.388700000000000     51.896249999999995
H      46.737650000000002     42.313800000000001     52.769050000000007
O      52.378149999999998     50.812299999999993     46.111649999999997
