6

C      48.230649999999990     48.618149999999993     48.205455000000001
C      47.725549999999998     47.554970000000004     47.820125000000004
H      48.033050000000003     49.602119999999999     47.662935000000004
H      49.069850000000002     48.478260000000006     48.902114999999995
H      46.930149999999998     47.545780000000001     47.097885000000005
H      47.780749999999998     46.397880000000001     48.218755000000002
