22

C      45.589349999999989     49.043499999999987     50.714299999999994
C      46.742450000000005     48.155699999999996     50.184300000000000
C      46.581350000000000     46.838700000000003     48.005600000000001
C      47.154449999999997     48.196300000000008     48.733200000000004
C      48.962149999999994     47.766099999999994     46.963799999999999
C      47.989949999999993     47.367199999999997     47.930399999999999
C      49.535650000000004     46.687600000000003     46.130400000000002
C      49.851250000000000     48.914100000000005     47.136800000000001
C      50.419749999999993     47.417100000000005     45.178900000000006
C      50.599950000000000     48.735100000000003     45.928500000000007
H      45.645449999999997     48.297100000000000     51.751100000000001
H      44.469949999999997     48.978300000000004     50.166800000000002
H      45.883049999999997     50.241900000000001     50.694099999999999
H      46.607550000000003     46.949700000000007     50.493000000000002
H      47.818950000000001     48.400900000000007     50.560000000000002
H      45.471849999999996     46.960700000000003     47.823000000000000
H      46.434350000000009     45.817999999999998     48.348800000000004
H      46.750250000000008     49.008300000000006     48.258600000000001
H      49.364550000000001     45.758099999999999     46.407900000000005
H      49.825149999999994     49.603499999999997     48.137800000000006
H      50.622450000000001     47.042199999999994     44.248899999999999
H      51.530050000000003     49.403800000000004     45.876300000000001
