23

C      48.805299999999988     45.947049999999990     49.485299999999995
C      49.676499999999997     47.017050000000005     49.436300000000003
C      47.343300000000006     46.555850000000000     49.224500000000006
C      49.024399999999993     48.417650000000002     49.137199999999993
C      47.731100000000005     48.309950000000008     47.203699999999998
C      47.529999999999994     48.077450000000006     48.599500000000006
C      46.528600000000004     48.979849999999999     49.010400000000004
C      47.208000000000006     49.326249999999995     46.296099999999996
C      46.042300000000004     50.179349999999999     48.286799999999999
C      46.279199999999996     50.261850000000003     46.887600000000006
H      48.643200000000000     45.645649999999996     50.658199999999994
H      49.162200000000006     45.022550000000003     48.933800000000005
H      50.416300000000000     46.916949999999993     48.719399999999993
H      50.128200000000000     47.007449999999999     50.505499999999998
H      46.827400000000004     46.984550000000006     50.156300000000002
H      46.856299999999997     45.748750000000001     48.585700000000003
H      49.717700000000001     49.132849999999998     48.776499999999999
H      49.122700000000002     48.553950000000007     50.219600000000000
H      48.352100000000000     47.536349999999999     46.822000000000003
H      47.646200000000000     49.329050000000002     45.341800000000006
H      45.583700000000000     50.977449999999997     48.938000000000002
H      45.985700000000001     50.891550000000002     46.109399999999994
H      46.121100000000006     48.606450000000002     50.084299999999999
