22

C      46.316799999999994     46.153449999999992     46.855799999999988
C      45.409500000000001     46.973250000000007     47.901899999999998
C      47.354600000000005     47.263950000000008     46.229799999999997
C      46.508000000000010     47.554650000000009     49.012299999999989
C      48.357399999999998     47.815550000000002     47.236699999999999
C      47.725700000000003     48.082949999999997     48.603600000000007
C      49.497700000000009     48.616350000000011     47.000899999999994
C      48.335999999999999     49.013250000000014     49.477100000000000
C      50.168800000000005     49.562250000000006     47.934500000000007
C      49.414999999999999     49.915450000000007     49.087799999999994
H      46.781600000000012     45.378450000000001     47.382799999999996
H      46.214500000000001     45.897150000000011     45.844899999999996
H      44.952200000000005     46.245450000000005     48.473399999999998
H      44.738000000000000     47.528550000000010     47.378599999999999
H      46.475400000000000     47.805250000000001     45.875799999999998
H      47.994000000000000     46.694650000000010     45.408600000000000
H      46.061000000000000     48.295950000000005     49.788499999999999
H      46.681200000000004     46.625750000000011     49.503599999999999
H      49.789699999999996     48.687350000000009     46.037700000000001
H      48.016800000000003     49.093850000000003     50.591400000000000
H      51.262000000000000     50.006749999999997     47.719400000000000
H      49.940700000000007     50.621549999999999     49.708099999999995
