22

C      50.167999999999992     46.264049999999997     47.313400000000001
C      50.468899999999998     47.719650000000009     47.129300000000001
C      48.728299999999997     46.169649999999997     47.638399999999990
C      49.688200000000002     48.556249999999999     48.296499999999995
C      47.674600000000005     47.264249999999997     48.052999999999997
C      48.140400000000000     48.664449999999995     48.173800000000000
C      46.240500000000004     47.103450000000002     48.215299999999999
C      47.216600000000000     49.721550000000001     48.352800000000002
C      45.451000000000001     48.025349999999996     49.063699999999997
C      45.961999999999996     49.386050000000004     49.041700000000006
H      50.757600000000004     45.729149999999997     48.097999999999999
H      50.645199999999996     45.770450000000004     46.220700000000008
H      51.431699999999999     47.615349999999999     47.193700000000007
H      50.313300000000005     48.253850000000007     46.257800000000003
H      48.064399999999999     45.217949999999995     47.123199999999997
H      48.900200000000005     45.888250000000006     48.917599999999993
H      50.184999999999995     48.284250000000007     49.421499999999995
H      50.134800000000006     49.499249999999996     48.646200000000007
H      45.873699999999999     46.149850000000008     48.227199999999996
H      47.645199999999996     50.782050000000005     47.952100000000002
H      44.568300000000001     47.887549999999997     49.779299999999992
H      45.301000000000002     50.339450000000006     49.298000000000002
