22

C      45.437949999999994     47.851649999999992     47.732549999999996
C      45.720450000000000     48.337049999999998     46.405749999999998
C      46.545050000000003     48.176650000000002     48.860250000000008
C      47.206850000000003     47.823149999999998     45.929249999999996
C      47.895150000000001     47.463049999999996     48.488550000000004
C      48.296350000000004     47.555450000000000     47.038449999999997
C      48.731850000000009     47.376449999999998     49.702750000000009
C      49.628150000000005     47.198050000000002     46.601849999999999
C      49.937650000000005     46.821149999999996     49.073350000000005
C      50.467150000000004     46.903250000000000     47.700950000000006
H      45.333250000000007     46.838850000000001     47.635350000000003
H      44.481250000000003     48.066349999999993     48.155249999999995
H      44.697450000000003     48.040349999999997     45.996949999999998
H      46.042650000000009     49.358150000000002     46.366650000000007
H      46.647850000000005     49.319749999999992     49.124849999999995
H      46.370850000000004     48.033650000000002     50.094450000000009
H      47.509250000000009     48.593650000000004     45.333950000000002
H      47.087150000000008     46.878349999999998     45.499650000000003
H      48.339449999999999     47.343449999999997     50.666049999999998
H      50.004350000000002     46.819049999999997     45.482849999999999
H      50.452449999999999     46.641849999999998     49.948049999999995
H      51.518749999999997     47.107849999999999     47.700950000000006
