22

C      47.585849999999994     45.780199999999994     46.872599999999991
C      47.027450000000002     46.061899999999994     48.348300000000002
C      48.130649999999996     46.965999999999994     46.330900000000000
C      47.979450000000000     46.797699999999992     49.463100000000004
C      48.410850000000003     47.985900000000001     47.311199999999999
C      48.596750000000007     48.136499999999998     48.764699999999998
C      48.890650000000001     49.137999999999991     46.508699999999997
C      49.164850000000008     49.222899999999996     49.486699999999999
C      49.441650000000003     50.213999999999999     47.191700000000004
C      49.624150000000007     50.253799999999998     48.645099999999992
H      46.554250000000003     45.560400000000001     46.407900000000005
H      48.161449999999995     44.830100000000002     47.216299999999997
H      46.152350000000006     46.601500000000001     48.228800000000000
H      46.641849999999998     45.075199999999995     48.682600000000001
H      47.299150000000004     47.355199999999996     45.767500000000005
H      48.830050000000007     47.193699999999993     45.457900000000002
H      48.689550000000004     46.076399999999992     50.010299999999994
H      47.560650000000003     47.459400000000002     50.221499999999999
H      48.718750000000007     48.959099999999992     45.459800000000001
H      49.454950000000004     49.179199999999994     50.542099999999998
H      49.700550000000000     51.098900000000000     46.744700000000002
H      49.847649999999994     51.169899999999998     49.128999999999998
