23

C      49.336999999999989     48.224799999999988     49.967944999999986
C      49.621099999999998     49.659799999999997     48.226524999999995
C      49.759799999999998     50.097199999999994     46.647789999999993
C      49.628500000000003     48.108600000000003     48.492914999999996
C      48.284099999999995     49.546699999999994     46.287338999999996
C      48.450500000000005     47.509599999999999     47.839634999999994
C      47.774100000000004     48.089899999999993     46.742053999999996
C      47.868899999999996     46.261400000000002     48.397064999999991
C      46.823800000000006     47.250999999999998     45.948185000000002
C      46.821399999999997     45.788900000000005     47.754094999999992
C      46.170900000000003     46.259499999999996     46.548295999999993
H      48.725999999999999     50.072700000000005     48.862084999999993
H      50.595400000000012     50.126799999999996     48.413004999999991
H      50.665800000000004     49.669400000000003     46.183069999999994
H      49.820900000000009     51.128599999999999     46.759845999999996
H      50.526300000000006     47.745899999999999     48.155614999999990
H      48.473699999999994     49.801099999999998     45.236184999999985
H      47.622699999999995     50.295200000000001     46.892974999999993
H      48.762100000000004     45.874800000000000     49.047894999999990
H      46.419799999999995     47.563899999999997     44.955585000000006
H      46.558899999999994     44.871400000000001     48.418414999999996
H      45.334199999999996     45.465499999999999     46.570484999999991
O      49.139600000000002     48.523299999999999     51.044414999999994
