
     RDKit          3D

107118  0  0  0  0  0  0  0  0999 V2000
    7.3770   -4.7750    3.9230 C   0  0  0  0  0  0  0  0  0  0  0  0
    0.0460    2.3850    5.8970 C   0  0  0  0  0  0  0  0  0  0  0  0
    6.1880   -5.4720    3.9380 C   0  0  0  0  0  0  0  0  0  0  0  0
    1.3810    2.2800    6.2650 C   0  0  0  0  0  0  0  0  0  0  0  0
    7.3080   -3.4040    4.1140 C   0  0  0  0  0  0  0  0  0  0  0  0
   -0.5750    1.3130    5.2670 C   0  0  0  0  0  0  0  0  0  0  0  0
    4.9790   -4.8980    4.1190 N   0  0  0  0  0  0  0  0  0  0  0  0
    2.0870    1.1010    5.9910 C   0  0  0  0  0  0  0  0  0  0  0  0
   -0.5300   -0.9440    4.2710 C   0  0  0  0  0  0  0  0  0  0  0  0
    0.0730   -2.1970    4.1850 C   0  0  0  0  0  0  0  0  0  0  0  0
    5.9630   -1.3590    4.4780 C   0  0  0  0  0  0  0  0  0  0  0  0
    4.7220   -0.7440    4.6590 C   0  0  0  0  0  0  0  0  0  0  0  0
    2.3170   -3.5290    4.2620 C   0  0  2  0  0  0  0  0  0  0  0  0
    6.0770   -2.7590    4.3130 C   0  0  0  0  0  0  0  0  0  0  0  0
    0.1270    0.1360    4.9130 C   0  0  0  0  0  0  0  0  0  0  0  0
    1.4210   -2.3060    4.4280 C   0  0  0  0  0  0  0  0  0  0  0  0
    4.9210   -3.5630    4.2920 C   0  0  0  0  0  0  0  0  0  0  0  0
    1.5110    0.0210    5.2490 C   0  0  0  0  0  0  0  0  0  0  0  0
    3.5840   -1.5300    4.7010 C   0  0  0  0  0  0  0  0  0  0  0  0
    3.7030   -2.9140    4.4330 C   0  0  0  0  0  0  0  0  0  0  0  0
    2.1670   -1.1760    4.8360 C   0  0  0  0  0  0  0  0  0  0  0  0
    2.0200    3.4040    6.9810 C   0  0  0  0  0  0  0  0  0  0  0  0
    1.3810    4.3960    7.3200 O   0  0  0  0  0  0  0  0  0  0  0  0
   -0.6500   -3.2790    3.7850 O   0  0  0  0  0  0  0  0  0  0  0  0
    8.4570   -2.6580    4.0950 O   0  0  0  0  0  0  0  0  0  0  0  0
    3.3170    0.9800    6.5990 O   0  0  0  0  0  0  0  0  0  0  0  0
   -1.7870   -0.8750    3.7010 O   0  0  0  0  0  0  0  0  0  0  0  0
    2.1350   -4.2130    2.9070 C   0  0  0  0  0  0  0  0  0  0  0  0
   -0.4880   -0.9310   -2.8290 C   0  0  0  0  0  0  0  0  0  0  0  0
   -3.5250    5.7700    0.5430 C   0  0  0  0  0  0  0  0  0  0  0  0
   -0.7240   -0.5720   -1.4860 C   0  0  0  0  0  0  0  0  0  0  0  0
   -2.3590    5.0140    0.7120 C   0  0  0  0  0  0  0  0  0  0  0  0
   -1.2590   -0.3260   -3.8530 C   0  0  0  0  0  0  0  0  0  0  0  0
   -4.4120    5.4680   -0.4870 C   0  0  0  0  0  0  0  0  0  0  0  0
   -1.6080    0.4990   -1.1950 C   0  0  0  0  0  0  0  0  0  0  0  0
   -2.0940    3.9120   -0.1130 C   0  0  0  0  0  0  0  0  0  0  0  0
   -3.0800    1.2210   -4.5460 C   0  0  0  0  0  0  0  0  0  0  0  0
   -4.0010    2.2300   -4.2820 C   0  0  0  0  0  0  0  0  0  0  0  0
   -4.8280    3.9860   -2.5670 C   0  0  0  0  0  0  0  0  0  0  0  0
   -2.1870    0.7190   -3.5560 C   0  0  0  0  0  0  0  0  0  0  0  0
   -4.1310    4.3720   -1.2910 C   0  0  0  0  0  0  0  0  0  0  0  0
   -3.9500    2.8600   -3.0630 C   0  0  0  0  0  0  0  0  0  0  0  0
   -2.2480    1.2600   -2.2390 C   0  0  0  0  0  0  0  0  0  0  0  0
   -3.0240    3.5240   -1.0660 C   0  0  0  0  0  0  0  0  0  0  0  0
   -3.0040    2.4690   -2.0870 C   0  0  0  0  0  0  0  0  0  0  0  0
    0.4990   -1.9100   -3.1140 C   0  0  0  0  0  0  0  0  0  0  0  0
    1.2040   -2.5460   -2.0880 C   0  0  0  0  0  0  0  0  0  0  0  0
    0.9110   -2.2510   -0.7700 C   0  0  0  0  0  0  0  0  0  0  0  0
   -0.0580   -1.2870   -0.4620 C   0  0  0  0  0  0  0  0  0  0  0  0
   -1.0090   -0.7590   -5.2970 C   0  0  0  0  0  0  0  0  0  0  0  0
   -0.3730   -2.1500   -5.4300 C   0  0  2  0  0  0  0  0  0  0  0  0
    0.8600   -2.2430   -4.5380 C   0  0  0  0  0  0  0  0  0  0  0  0
   -1.8910    0.7850    0.2680 C   0  0  0  0  0  0  0  0  0  0  0  0
   -1.7100   -0.4020    1.2280 C   0  0  1  0  0  0  0  0  0  0  0  0
   -0.3300   -1.0140    0.9980 C   0  0  0  0  0  0  0  0  0  0  0  0
   -4.9860    2.6000   -5.3090 C   0  0  0  0  0  0  0  0  0  0  0  0
   -5.9330    1.8510   -5.5040 O   0  0  0  0  0  0  0  0  0  0  0  0
   -4.7660    3.8980   -6.0510 C   0  0  0  0  0  0  0  0  0  0  0  0
   -4.7190    3.6550   -7.5490 C   0  0  0  0  0  0  0  0  0  0  0  0
   -0.0750   -2.5210   -6.8970 C   0  0  0  0  0  0  0  0  0  0  0  0
    1.0430   -1.7340   -7.5640 C   0  0  0  0  0  0  0  0  0  0  0  0
   -1.8960    0.1230    2.6680 C   0  0  0  0  0  0  0  0  0  0  0  0
    8.3130   -5.2960    3.7600 H   0  0  0  0  0  0  0  0  0  0  0  0
   -0.5250    3.2800    6.1340 H   0  0  0  0  0  0  0  0  0  0  0  0
    6.1690   -6.5510    3.7930 H   0  0  0  0  0  0  0  0  0  0  0  0
   -1.6430    1.3950    5.0670 H   0  0  0  0  0  0  0  0  0  0  0  0
    6.8590   -0.7380    4.4520 H   0  0  0  0  0  0  0  0  0  0  0  0
    4.6830    0.3390    4.7280 H   0  0  0  0  0  0  0  0  0  0  0  0
    2.1300   -4.2290    5.0850 H   0  0  0  0  0  0  0  0  0  0  0  0
    3.0980    3.3230    7.1960 H   0  0  0  0  0  0  0  0  0  0  0  0
   -1.5670   -2.9600    3.6670 H   0  0  0  0  0  0  0  0  0  0  0  0
    9.1760   -3.1900    3.7070 H   0  0  0  0  0  0  0  0  0  0  0  0
    3.5090    0.0310    6.6970 H   0  0  0  0  0  0  0  0  0  0  0  0
    2.8650   -5.0110    2.7450 H   0  0  0  0  0  0  0  0  0  0  0  0
    2.2360   -3.5010    2.0800 H   0  0  0  0  0  0  0  0  0  0  0  0
    1.1480   -4.6820    2.8310 H   0  0  0  0  0  0  0  0  0  0  0  0
   -3.7110    6.6270    1.1860 H   0  0  0  0  0  0  0  0  0  0  0  0
   -1.6360    5.3040    1.4730 H   0  0  0  0  0  0  0  0  0  0  0  0
   -5.2770    6.0970   -0.6750 H   0  0  0  0  0  0  0  0  0  0  0  0
   -1.1300    3.4270   -0.0320 H   0  0  0  0  0  0  0  0  0  0  0  0
   -3.1130    0.7860   -5.5390 H   0  0  0  0  0  0  0  0  0  0  0  0
   -5.8470    3.6360   -2.3730 H   0  0  0  0  0  0  0  0  0  0  0  0
   -4.8200    4.8260   -3.2680 H   0  0  0  0  0  0  0  0  0  0  0  0
    1.9730   -3.2820   -2.3120 H   0  0  0  0  0  0  0  0  0  0  0  0
    1.4450   -2.7690    0.0250 H   0  0  0  0  0  0  0  0  0  0  0  0
   -0.3740    0.0070   -5.7580 H   0  0  0  0  0  0  0  0  0  0  0  0
   -1.9460   -0.8010   -5.8560 H   0  0  0  0  0  0  0  0  0  0  0  0
   -1.1160   -2.8760   -5.0650 H   0  0  0  0  0  0  0  0  0  0  0  0
    1.6420   -1.5460   -4.8540 H   0  0  0  0  0  0  0  0  0  0  0  0
    1.2720   -3.2590   -4.6000 H   0  0  0  0  0  0  0  0  0  0  0  0
   -2.9170    1.1520    0.3870 H   0  0  0  0  0  0  0  0  0  0  0  0
   -1.1900    1.5580    0.5890 H   0  0  0  0  0  0  0  0  0  0  0  0
   -2.4720   -1.1650    1.0200 H   0  0  0  0  0  0  0  0  0  0  0  0
    0.4640   -0.3620    1.3850 H   0  0  0  0  0  0  0  0  0  0  0  0
   -0.2820   -1.9700    1.5260 H   0  0  0  0  0  0  0  0  0  0  0  0
   -3.8280    4.3630   -5.7290 H   0  0  0  0  0  0  0  0  0  0  0  0
   -5.5810    4.5820   -5.7910 H   0  0  0  0  0  0  0  0  0  0  0  0
   -3.9270    2.9410   -7.8030 H   0  0  0  0  0  0  0  0  0  0  0  0
   -5.6680    3.2460   -7.9180 H   0  0  0  0  0  0  0  0  0  0  0  0
   -4.5220    4.5930   -8.0810 H   0  0  0  0  0  0  0  0  0  0  0  0
    0.1870   -3.5860   -6.9360 H   0  0  0  0  0  0  0  0  0  0  0  0
   -0.9870   -2.4060   -7.4920 H   0  0  0  0  0  0  0  0  0  0  0  0
    1.1670   -2.0710   -8.5990 H   0  0  0  0  0  0  0  0  0  0  0  0
    2.0000   -1.8910   -7.0610 H   0  0  0  0  0  0  0  0  0  0  0  0
    0.8310   -0.6600   -7.5820 H   0  0  0  0  0  0  0  0  0  0  0  0
   -1.2180    0.9700    2.8250 H   0  0  0  0  0  0  0  0  0  0  0  0
   -2.9110    0.5310    2.7630 H   0  0  0  0  0  0  0  0  0  0  0  0
  1  3  2  0
  1  5  1  0
  1 63  1  0
  2  4  2  0
  2  6  1  0
  2 64  1  0
  3  7  1  0
  3 65  1  0
  4  8  1  0
  4 22  1  0
  5 14  2  0
  5 25  1  0
  6 15  2  0
  6 66  1  0
  7 17  2  0
  8 18  2  0
  8 26  1  0
  9 10  2  0
  9 15  1  0
  9 27  1  0
 10 16  1  0
 10 24  1  0
 11 12  2  0
 11 14  1  0
 11 67  1  0
 12 19  1  0
 12 68  1  0
 13 16  1  0
 13 20  1  0
 13 28  1  0
 13 69  1  1
 14 17  1  0
 15 18  1  0
 16 21  2  0
 17 20  1  0
 18 21  1  0
 19 20  2  0
 19 21  1  0
 22 23  2  0
 22 70  1  0
 24 71  1  0
 25 72  1  0
 26 73  1  0
 27 62  1  0
 28 74  1  0
 28 75  1  0
 28 76  1  0
 29 31  2  0
 29 33  1  0
 29 46  1  0
 30 32  2  0
 30 34  1  0
 30 77  1  0
 31 35  1  0
 31 49  1  0
 32 36  1  0
 32 78  1  0
 33 40  2  0
 33 50  1  0
 34 41  2  0
 34 79  1  0
 35 43  2  0
 35 53  1  0
 36 44  2  0
 36 80  1  0
 37 38  2  0
 37 40  1  0
 37 81  1  0
 38 42  1  0
 38 56  1  0
 39 41  1  0
 39 42  1  0
 39 82  1  0
 39 83  1  0
 40 43  1  0
 41 44  1  0
 42 45  2  0
 43 45  1  0
 44 45  1  0
 46 47  2  0
 46 52  1  0
 47 48  1  0
 47 84  1  0
 48 49  2  0
 48 85  1  0
 49 55  1  0
 50 51  1  0
 50 86  1  0
 50 87  1  0
 51 52  1  0
 51 60  1  0
 51 88  1  1
 52 89  1  0
 52 90  1  0
 53 54  1  0
 53 91  1  0
 53 92  1  0
 54 55  1  0
 54 62  1  0
 54 93  1  6
 55 94  1  0
 55 95  1  0
 56 57  2  0
 56 58  1  0
 58 59  1  0
 58 96  1  0
 58 97  1  0
 59 98  1  0
 59 99  1  0
 59100  1  0
 60 61  1  0
 60101  1  0
 60102  1  0
 61103  1  0
 61104  1  0
 61105  1  0
 62106  1  0
 62107  1  0
M  END
