
     RDKit          3D

111121  0  0  0  0  0  0  0  0999 V2000
    2.0140    3.9640    2.5070 C   0  0  0  0  0  0  0  0  0  0  0  0
    3.3220    4.3930    2.8350 C   0  0  0  0  0  0  0  0  0  0  0  0
    4.1800   -0.1590    2.7640 C   0  0  0  0  0  0  0  0  0  0  0  0
    1.7330    2.5720    2.3860 C   0  0  0  0  0  0  0  0  0  0  0  0
    4.3570    3.4590    3.0070 C   0  0  0  0  0  0  0  0  0  0  0  0
    2.8740    0.2210    2.5120 C   0  0  0  0  0  0  0  0  0  0  0  0
    4.8960    1.0020    2.9420 N   0  0  0  0  0  0  0  0  0  0  0  0
    2.7890    1.6400    2.5570 C   0  0  0  0  0  0  0  0  0  0  0  0
    4.0670    2.1000    2.8490 C   0  0  0  0  0  0  0  0  0  0  0  0
    1.0120    4.9430    2.2900 C   0  0  0  0  0  0  0  0  0  0  0  0
    1.3060    6.2990    2.4850 C   0  0  0  0  0  0  0  0  0  0  0  0
    2.5820    6.7120    2.8430 C   0  0  0  0  0  0  0  0  0  0  0  0
    3.5880    5.7620    2.9970 C   0  0  0  0  0  0  0  0  0  0  0  0
    0.3020    2.1160    2.1020 C   0  0  2  0  0  0  0  0  0  0  0  0
   -0.4390    3.1370    1.1790 C   0  0  2  0  0  0  0  0  0  0  0  0
   -0.3840    4.5290    1.8740 C   0  0  0  0  0  0  0  0  0  0  0  0
    4.7360   -1.4880    2.8200 C   0  0  0  0  0  0  0  0  0  0  0  0
    4.0790   -2.5170    2.8780 O   0  0  0  0  0  0  0  0  0  0  0  0
    0.3070    7.2230    2.3240 O   0  0  0  0  0  0  0  0  0  0  0  0
   -1.9490    2.7560    1.0030 C   0  0  0  0  0  0  0  0  0  0  0  0
    0.2860    3.1900   -0.2180 C   0  0  0  0  0  0  0  0  0  0  0  0
   -0.1680    4.2810   -1.1810 C   0  0  0  0  0  0  0  0  0  0  0  0
   -0.3700    1.8770    3.4700 C   0  0  0  0  0  0  0  0  0  0  0  0
    0.2880   -2.4230   -1.5240 C   0  0  0  0  0  0  0  0  0  0  0  0
   -0.6320   -2.5040   -0.4700 C   0  0  0  0  0  0  0  0  0  0  0  0
   -2.1940    1.6540   -3.0080 C   0  0  0  0  0  0  0  0  0  0  0  0
   -2.7010    1.8200   -1.7230 C   0  0  0  0  0  0  0  0  0  0  0  0
    0.1460   -1.3260   -2.4250 C   0  0  0  0  0  0  0  0  0  0  0  0
   -1.4010   -1.3580   -0.1150 C   0  0  0  0  0  0  0  0  0  0  0  0
   -1.2430    0.6570   -3.2120 C   0  0  0  0  0  0  0  0  0  0  0  0
   -2.1680    1.0170   -0.6830 C   0  0  0  0  0  0  0  0  0  0  0  0
   -0.8360   -0.2930   -2.2270 C   0  0  0  0  0  0  0  0  0  0  0  0
   -1.4650   -0.2020   -0.9680 C   0  0  0  0  0  0  0  0  0  0  0  0
    1.2780   -3.4500   -1.6880 C   0  0  0  0  0  0  0  0  0  0  0  0
    1.3170   -4.6060   -0.8490 C   0  0  0  0  0  0  0  0  0  0  0  0
    0.2610   -4.6950    0.1020 C   0  0  0  0  0  0  0  0  0  0  0  0
   -0.7640   -3.7230    0.2200 C   0  0  0  0  0  0  0  0  0  0  0  0
   -2.5700    2.4140   -4.0650 N   0  0  0  0  0  0  0  0  0  0  0  0
   -3.5170    3.3670   -3.8830 C   0  0  0  0  0  0  0  0  0  0  0  0
   -4.1460    3.5540   -2.6620 C   0  0  0  0  0  0  0  0  0  0  0  0
   -3.7410    2.7690   -1.5870 C   0  0  0  0  0  0  0  0  0  0  0  0
    2.2800   -3.2850   -2.6710 C   0  0  0  0  0  0  0  0  0  0  0  0
    3.2900   -4.2290   -2.8610 C   0  0  0  0  0  0  0  0  0  0  0  0
    3.3420   -5.3530   -2.0650 C   0  0  0  0  0  0  0  0  0  0  0  0
    2.3930   -5.5530   -1.0480 C   0  0  0  0  0  0  0  0  0  0  0  0
    1.0150   -1.3510   -3.6750 C   0  0  0  0  0  0  0  0  0  0  0  0
    2.3730   -2.0010   -3.4510 C   0  0  0  0  0  0  0  0  0  0  0  0
   -2.2220   -1.4720    1.1710 C   0  0  1  0  0  0  0  0  0  0  0  0
   -2.9770   -2.7990    1.1310 C   0  0  0  0  0  0  0  0  0  0  0  0
   -2.0510   -4.0220    1.0130 C   0  0  1  0  0  0  0  0  0  0  0  0
    0.2690   -5.7390    1.1470 C   0  0  0  0  0  0  0  0  0  0  0  0
   -0.1690   -6.8650    0.9640 O   0  0  0  0  0  0  0  0  0  0  0  0
   -0.7800    0.5560   -4.5120 O   0  0  0  0  0  0  0  0  0  0  0  0
   -2.2540    1.3870    0.6450 O   0  0  0  0  0  0  0  0  0  0  0  0
   -2.8450   -5.1800    0.3320 C   0  0  0  0  0  0  0  0  0  0  0  0
   -1.3560   -1.3800    2.4250 C   0  0  0  0  0  0  0  0  0  0  0  0
   -3.8320   -5.9020    1.2530 C   0  0  0  0  0  0  0  0  0  0  0  0
   -5.2340   -5.3180    1.2360 C   0  0  0  0  0  0  0  0  0  0  0  0
    2.5730   -6.8140   -0.2350 C   0  0  0  0  0  0  0  0  0  0  0  0
   -3.8730    4.2090   -5.0820 C   0  0  0  0  0  0  0  0  0  0  0  0
   -5.1680    3.4470   -6.0950 S   0  0  0  0  0  0  0  0  0  0  0  0
    5.3620    3.7830    3.2550 H   0  0  0  0  0  0  0  0  0  0  0  0
    2.0630   -0.4690    2.3090 H   0  0  0  0  0  0  0  0  0  0  0  0
    5.8880    1.0580    3.1330 H   0  0  0  0  0  0  0  0  0  0  0  0
    2.8170    7.7610    2.9990 H   0  0  0  0  0  0  0  0  0  0  0  0
    4.5860    6.0990    3.2690 H   0  0  0  0  0  0  0  0  0  0  0  0
    0.3490    1.1660    1.5620 H   0  0  0  0  0  0  0  0  0  0  0  0
   -0.9990    4.5310    2.7820 H   0  0  0  0  0  0  0  0  0  0  0  0
   -0.8260    5.2830    1.2100 H   0  0  0  0  0  0  0  0  0  0  0  0
    5.8370   -1.5360    2.8280 H   0  0  0  0  0  0  0  0  0  0  0  0
    0.6790    8.1100    2.4470 H   0  0  0  0  0  0  0  0  0  0  0  0
   -2.4380    3.4870    0.3580 H   0  0  0  0  0  0  0  0  0  0  0  0
   -2.4570    2.9030    1.9660 H   0  0  0  0  0  0  0  0  0  0  0  0
    0.1960    2.2240   -0.7180 H   0  0  0  0  0  0  0  0  0  0  0  0
    1.3680    3.3230   -0.0930 H   0  0  0  0  0  0  0  0  0  0  0  0
    0.2800    4.1080   -2.1660 H   0  0  0  0  0  0  0  0  0  0  0  0
   -1.2490    4.3100   -1.3140 H   0  0  0  0  0  0  0  0  0  0  0  0
    0.1600    5.2690   -0.8450 H   0  0  0  0  0  0  0  0  0  0  0  0
   -0.3870    2.7760    4.0960 H   0  0  0  0  0  0  0  0  0  0  0  0
   -1.3990    1.5230    3.3790 H   0  0  0  0  0  0  0  0  0  0  0  0
    0.1740    1.1150    4.0430 H   0  0  0  0  0  0  0  0  0  0  0  0
   -4.9390    4.2870   -2.5430 H   0  0  0  0  0  0  0  0  0  0  0  0
   -4.2550    2.8840   -0.6370 H   0  0  0  0  0  0  0  0  0  0  0  0
    4.0520   -4.0830   -3.6230 H   0  0  0  0  0  0  0  0  0  0  0  0
    4.1440   -6.0720   -2.2280 H   0  0  0  0  0  0  0  0  0  0  0  0
    1.2360   -0.3360   -4.0200 H   0  0  0  0  0  0  0  0  0  0  0  0
    0.4660   -1.8860   -4.4630 H   0  0  0  0  0  0  0  0  0  0  0  0
    2.8470   -2.1730   -4.4270 H   0  0  0  0  0  0  0  0  0  0  0  0
    3.0230   -1.3160   -2.8880 H   0  0  0  0  0  0  0  0  0  0  0  0
   -2.9880   -0.6940    1.2200 H   0  0  0  0  0  0  0  0  0  0  0  0
   -3.6040   -2.8900    2.0270 H   0  0  0  0  0  0  0  0  0  0  0  0
   -3.6710   -2.7670    0.2790 H   0  0  0  0  0  0  0  0  0  0  0  0
   -1.7520   -4.3180    2.0270 H   0  0  0  0  0  0  0  0  0  0  0  0
    0.6710   -5.4140    2.1230 H   0  0  0  0  0  0  0  0  0  0  0  0
   -1.2800    1.2470   -5.0030 H   0  0  0  0  0  0  0  0  0  0  0  0
   -2.1520   -5.9400   -0.0430 H   0  0  0  0  0  0  0  0  0  0  0  0
   -3.3510   -4.8130   -0.5690 H   0  0  0  0  0  0  0  0  0  0  0  0
   -0.6560   -2.2180    2.5380 H   0  0  0  0  0  0  0  0  0  0  0  0
   -0.7490   -0.4820    2.4060 H   0  0  0  0  0  0  0  0  0  0  0  0
   -1.9830   -1.3500    3.3210 H   0  0  0  0  0  0  0  0  0  0  0  0
   -3.9100   -6.9490    0.9150 H   0  0  0  0  0  0  0  0  0  0  0  0
   -3.4480   -5.9430    2.2810 H   0  0  0  0  0  0  0  0  0  0  0  0
   -5.8920   -5.9060    1.8770 H   0  0  0  0  0  0  0  0  0  0  0  0
   -5.6520   -5.3360    0.2260 H   0  0  0  0  0  0  0  0  0  0  0  0
   -5.2580   -4.2890    1.5930 H   0  0  0  0  0  0  0  0  0  0  0  0
    3.5000   -7.3310   -0.5030 H   0  0  0  0  0  0  0  0  0  0  0  0
    2.6560   -6.5870    0.8300 H   0  0  0  0  0  0  0  0  0  0  0  0
    1.7610   -7.5180   -0.4310 H   0  0  0  0  0  0  0  0  0  0  0  0
   -4.2040    5.2050   -4.7710 H   0  0  0  0  0  0  0  0  0  0  0  0
   -2.9820    4.3440   -5.7070 H   0  0  0  0  0  0  0  0  0  0  0  0
   -4.5630    2.2500   -6.2020 H   0  0  0  0  0  0  0  0  0  0  0  0
  1  2  2  0
  1  4  1  0
  1 10  1  0
  2  5  1  0
  2 13  1  0
  3  6  2  0
  3  7  1  0
  3 17  1  0
  4  8  2  0
  4 14  1  0
  5  9  2  0
  5 62  1  0
  6  8  1  0
  6 63  1  0
  7  9  1  0
  7 64  1  0
  8  9  1  0
 10 11  2  0
 10 16  1  0
 11 12  1  0
 11 19  1  0
 12 13  2  0
 12 65  1  0
 13 66  1  0
 14 15  1  0
 14 23  1  0
 14 67  1  6
 15 16  1  0
 15 20  1  6
 15 21  1  0
 16 68  1  0
 16 69  1  0
 17 18  2  0
 17 70  1  0
 19 71  1  0
 20 54  1  0
 20 72  1  0
 20 73  1  0
 21 22  1  0
 21 74  1  0
 21 75  1  0
 22 76  1  0
 22 77  1  0
 22 78  1  0
 23 79  1  0
 23 80  1  0
 23 81  1  0
 24 25  2  0
 24 28  1  0
 24 34  1  0
 25 29  1  0
 25 37  1  0
 26 27  1  0
 26 30  2  0
 26 38  1  0
 27 31  2  0
 27 41  1  0
 28 32  2  0
 28 46  1  0
 29 33  2  0
 29 48  1  0
 30 32  1  0
 30 53  1  0
 31 33  1  0
 31 54  1  0
 32 33  1  0
 34 35  2  0
 34 42  1  0
 35 36  1  0
 35 45  1  0
 36 37  2  0
 36 51  1  0
 37 50  1  0
 38 39  2  0
 39 40  1  0
 39 60  1  0
 40 41  2  0
 40 82  1  0
 41 83  1  0
 42 43  2  0
 42 47  1  0
 43 44  1  0
 43 84  1  0
 44 45  2  0
 44 85  1  0
 45 59  1  0
 46 47  1  0
 46 86  1  0
 46 87  1  0
 47 88  1  0
 47 89  1  0
 48 49  1  0
 48 56  1  0
 48 90  1  1
 49 50  1  0
 49 91  1  0
 49 92  1  0
 50 55  1  0
 50 93  1  1
 51 52  2  0
 51 94  1  0
 53 95  1  0
 55 57  1  0
 55 96  1  0
 55 97  1  0
 56 98  1  0
 56 99  1  0
 56100  1  0
 57 58  1  0
 57101  1  0
 57102  1  0
 58103  1  0
 58104  1  0
 58105  1  0
 59106  1  0
 59107  1  0
 59108  1  0
 60 61  1  0
 60109  1  0
 60110  1  0
 61111  1  0
M  END
