
     RDKit          3D

105115  0  0  0  0  0  0  0  0999 V2000
   -1.1920   -1.7650    2.9780 C   0  0  0  0  0  0  0  0  0  0  0  0
   -0.6520   -2.9690    2.4690 C   0  0  0  0  0  0  0  0  0  0  0  0
    0.9760   -3.1800    6.8350 C   0  0  0  0  0  0  0  0  0  0  0  0
   -0.8920   -1.3730    4.3070 C   0  0  0  0  0  0  0  0  0  0  0  0
    0.0900   -3.7970    3.3000 C   0  0  0  0  0  0  0  0  0  0  0  0
    0.2970   -2.0640    6.5000 C   0  0  0  0  0  0  0  0  0  0  0  0
    1.0440   -4.1900    5.6930 C   0  0  2  0  0  0  0  0  0  0  0  0
   -0.1420   -2.2150    5.1120 C   0  0  0  0  0  0  0  0  0  0  0  0
    0.3130   -3.4360    4.6220 C   0  0  0  0  0  0  0  0  0  0  0  0
   -2.0150   -1.0330    2.0950 C   0  0  0  0  0  0  0  0  0  0  0  0
   -2.2320   -1.4410    0.7760 C   0  0  0  0  0  0  0  0  0  0  0  0
   -1.5770   -2.5950    0.3870 C   0  0  0  0  0  0  0  0  0  0  0  0
   -0.8300   -3.3590    1.2050 N   0  0  0  0  0  0  0  0  0  0  0  0
   -2.6700    0.1010    2.5120 O   0  0  0  0  0  0  0  0  0  0  0  0
   -1.6540   -3.0890   -0.8780 O   0  0  0  0  0  0  0  0  0  0  0  0
    0.3590   -5.5110    6.0390 C   0  0  0  0  0  0  0  0  0  0  0  0
    0.0100   -0.8380    7.2920 C   0  0  0  0  0  0  0  0  0  0  0  0
    1.6480   -3.4950    8.1290 C   0  0  0  0  0  0  0  0  0  0  0  0
   -3.2110   -0.7260   -0.1180 C   0  0  0  0  0  0  0  0  0  0  0  0
    0.4680    0.1080   -3.6130 C   0  0  0  0  0  0  0  0  0  0  0  0
    1.7790    0.6330   -3.7350 C   0  0  0  0  0  0  0  0  0  0  0  0
   -1.1140    4.4520   -1.7920 C   0  0  0  0  0  0  0  0  0  0  0  0
    0.2360    4.8750   -1.8120 C   0  0  0  0  0  0  0  0  0  0  0  0
   -0.5690    0.8890   -3.0530 C   0  0  0  0  0  0  0  0  0  0  0  0
    1.9970    1.9440   -3.2710 C   0  0  0  0  0  0  0  0  0  0  0  0
   -1.3770    3.0890   -2.1970 C   0  0  0  0  0  0  0  0  0  0  0  0
    1.2390    4.0230   -2.2850 C   0  0  0  0  0  0  0  0  0  0  0  0
   -0.3400    2.2280   -2.6540 C   0  0  0  0  0  0  0  0  0  0  0  0
    0.9670    2.7300   -2.7350 C   0  0  0  0  0  0  0  0  0  0  0  0
    0.1840   -1.2110   -4.0440 C   0  0  0  0  0  0  0  0  0  0  0  0
    1.1980   -1.9960   -4.6310 C   0  0  0  0  0  0  0  0  0  0  0  0
    2.4900   -1.4780   -4.7360 C   0  0  0  0  0  0  0  0  0  0  0  0
    2.8020   -0.1850   -4.2890 C   0  0  0  0  0  0  0  0  0  0  0  0
   -2.0610    5.4420   -1.3800 C   0  0  0  0  0  0  0  0  0  0  0  0
   -1.6810    6.7280   -0.9580 C   0  0  0  0  0  0  0  0  0  0  0  0
   -0.3430    7.0840   -0.9540 C   0  0  0  0  0  0  0  0  0  0  0  0
    0.6030    6.1670   -1.3960 C   0  0  0  0  0  0  0  0  0  0  0  0
   -1.1130   -1.7300   -3.8720 C   0  0  0  0  0  0  0  0  0  0  0  0
   -1.3880   -3.0240   -4.3370 C   0  0  0  0  0  0  0  0  0  0  0  0
   -0.3850   -3.7940   -4.9470 C   0  0  0  0  0  0  0  0  0  0  0  0
    0.9040   -3.2860   -5.0850 C   0  0  0  0  0  0  0  0  0  0  0  0
   -2.0630   -1.0180   -3.2380 N   0  0  0  0  0  0  0  0  0  0  0  0
   -1.8080    0.2680   -2.8670 C   0  0  0  0  0  0  0  0  0  0  0  0
   -2.8990    0.9930   -2.0820 C   0  0  1  0  0  0  0  0  0  0  0  0
   -2.7820    2.5330   -2.2810 C   0  0  0  0  0  0  0  0  0  0  0  0
   -3.4100    5.1770   -1.4100 O   0  0  0  0  0  0  0  0  0  0  0  0
   -4.3080    0.6130   -2.5940 C   0  0  0  0  0  0  0  0  0  0  0  0
   -2.7340    0.6640   -0.5640 C   0  0  0  0  0  0  0  0  0  0  0  0
    4.2620    0.2320   -4.3510 C   0  0  0  0  0  0  0  0  0  0  0  0
   -2.7600   -3.6370   -4.1920 C   0  0  0  0  0  0  0  0  0  0  0  0
    3.9680    0.9800    0.0310 C   0  0  0  0  0  0  0  0  0  0  0  0
    4.7620    2.1430    0.0940 C   0  0  0  0  0  0  0  0  0  0  0  0
    5.6620    2.4540   -0.9410 C   0  0  0  0  0  0  0  0  0  0  0  0
    5.7720    1.6230   -2.0530 C   0  0  0  0  0  0  0  0  0  0  0  0
    4.9590    0.5020   -2.1460 C   0  0  0  0  0  0  0  0  0  0  0  0
    4.0890    0.1610   -1.1070 C   0  0  0  0  0  0  0  0  0  0  0  0
    4.6940    3.0850    1.2380 C   0  0  0  0  0  0  0  0  0  0  0  0
    5.4390    4.0560    1.3290 O   0  0  0  0  0  0  0  0  0  0  0  0
    5.0090   -0.3110   -3.2460 O   0  0  0  0  0  0  0  0  0  0  0  0
    2.9810    0.5780    1.0980 C   0  0  0  0  0  0  0  0  0  0  0  0
    1.4130    1.4780    0.9470 S   0  0  0  0  0  0  0  0  0  0  0  0
   -1.2370   -0.4250    4.6980 H   0  0  0  0  0  0  0  0  0  0  0  0
    0.4840   -4.7320    2.9130 H   0  0  0  0  0  0  0  0  0  0  0  0
    2.0860   -4.3510    5.3940 H   0  0  0  0  0  0  0  0  0  0  0  0
   -2.8760   -0.0010    3.4560 H   0  0  0  0  0  0  0  0  0  0  0  0
   -1.8000   -2.3420   -1.4810 H   0  0  0  0  0  0  0  0  0  0  0  0
   -0.6700   -5.3650    6.3950 H   0  0  0  0  0  0  0  0  0  0  0  0
    0.3130   -6.1750    5.1710 H   0  0  0  0  0  0  0  0  0  0  0  0
    0.9050   -6.0420    6.8240 H   0  0  0  0  0  0  0  0  0  0  0  0
    0.3970   -0.8990    8.3110 H   0  0  0  0  0  0  0  0  0  0  0  0
    0.4570    0.0460    6.8270 H   0  0  0  0  0  0  0  0  0  0  0  0
   -1.0670   -0.6800    7.3740 H   0  0  0  0  0  0  0  0  0  0  0  0
    2.6770   -3.8260    7.9580 H   0  0  0  0  0  0  0  0  0  0  0  0
    1.6920   -2.6330    8.8000 H   0  0  0  0  0  0  0  0  0  0  0  0
    1.1100   -4.2900    8.6510 H   0  0  0  0  0  0  0  0  0  0  0  0
   -3.4710   -1.3710   -0.9620 H   0  0  0  0  0  0  0  0  0  0  0  0
   -4.1540   -0.6150    0.4330 H   0  0  0  0  0  0  0  0  0  0  0  0
    2.9880    2.3910   -3.3300 H   0  0  0  0  0  0  0  0  0  0  0  0
    2.2640    4.3940   -2.3190 H   0  0  0  0  0  0  0  0  0  0  0  0
    3.2840   -2.0960   -5.1530 H   0  0  0  0  0  0  0  0  0  0  0  0
   -2.4240    7.4540   -0.6380 H   0  0  0  0  0  0  0  0  0  0  0  0
   -0.0340    8.0760   -0.6320 H   0  0  0  0  0  0  0  0  0  0  0  0
    1.6450    6.4730   -1.4180 H   0  0  0  0  0  0  0  0  0  0  0  0
   -0.6080   -4.7970   -5.3060 H   0  0  0  0  0  0  0  0  0  0  0  0
    1.6710   -3.9080   -5.5470 H   0  0  0  0  0  0  0  0  0  0  0  0
   -3.4340    2.9830   -1.5360 H   0  0  0  0  0  0  0  0  0  0  0  0
   -3.1680    2.8210   -3.2710 H   0  0  0  0  0  0  0  0  0  0  0  0
   -3.8940    5.9320   -1.0380 H   0  0  0  0  0  0  0  0  0  0  0  0
   -4.5050   -0.4650   -2.5560 H   0  0  0  0  0  0  0  0  0  0  0  0
   -4.4410    0.9100   -3.6460 H   0  0  0  0  0  0  0  0  0  0  0  0
   -5.0880    1.1120   -2.0030 H   0  0  0  0  0  0  0  0  0  0  0  0
   -1.6910    0.8270   -0.2680 H   0  0  0  0  0  0  0  0  0  0  0  0
   -3.3140    1.3940    0.0150 H   0  0  0  0  0  0  0  0  0  0  0  0
    4.4010    1.3110   -4.4730 H   0  0  0  0  0  0  0  0  0  0  0  0
    4.7030   -0.1930   -5.2590 H   0  0  0  0  0  0  0  0  0  0  0  0
   -3.1660   -3.8880   -5.1760 H   0  0  0  0  0  0  0  0  0  0  0  0
   -3.4760   -2.9690   -3.7010 H   0  0  0  0  0  0  0  0  0  0  0  0
   -2.7020   -4.5520   -3.5920 H   0  0  0  0  0  0  0  0  0  0  0  0
    6.2790    3.3520   -0.8770 H   0  0  0  0  0  0  0  0  0  0  0  0
    6.4830    1.8620   -2.8400 H   0  0  0  0  0  0  0  0  0  0  0  0
    3.4830   -0.7380   -1.2130 H   0  0  0  0  0  0  0  0  0  0  0  0
    3.9470    2.8890    2.0260 H   0  0  0  0  0  0  0  0  0  0  0  0
    3.4110    0.7180    2.0990 H   0  0  0  0  0  0  0  0  0  0  0  0
    2.7560   -0.4950    1.0160 H   0  0  0  0  0  0  0  0  0  0  0  0
    0.6990    0.6680    1.7360 H   0  0  0  0  0  0  0  0  0  0  0  0
  1  2  2  0
  1  4  1  0
  1 10  1  0
  2  5  1  0
  2 13  1  0
  3  6  2  0
  3  7  1  0
  3 18  1  0
  4  8  2  0
  4 62  1  0
  5  9  2  0
  5 63  1  0
  6  8  1  0
  6 17  1  0
  7  9  1  0
  7 16  1  0
  7 64  1  6
  8  9  1  0
 10 11  2  0
 10 14  1  0
 11 12  1  0
 11 19  1  0
 12 13  2  0
 12 15  1  0
 14 65  1  0
 15 66  1  0
 16 67  1  0
 16 68  1  0
 16 69  1  0
 17 70  1  0
 17 71  1  0
 17 72  1  0
 18 73  1  0
 18 74  1  0
 18 75  1  0
 19 48  1  0
 19 76  1  0
 19 77  1  0
 20 21  1  0
 20 24  2  0
 20 30  1  0
 21 25  2  0
 21 33  1  0
 22 23  2  0
 22 26  1  0
 22 34  1  0
 23 27  1  0
 23 37  1  0
 24 28  1  0
 24 43  1  0
 25 29  1  0
 25 78  1  0
 26 28  2  0
 26 45  1  0
 27 29  2  0
 27 79  1  0
 28 29  1  0
 30 31  2  0
 30 38  1  0
 31 32  1  0
 31 41  1  0
 32 33  2  0
 32 80  1  0
 33 49  1  0
 34 35  2  0
 34 46  1  0
 35 36  1  0
 35 81  1  0
 36 37  2  0
 36 82  1  0
 37 83  1  0
 38 39  2  0
 38 42  1  0
 39 40  1  0
 39 50  1  0
 40 41  2  0
 40 84  1  0
 41 85  1  0
 42 43  2  0
 43 44  1  0
 44 45  1  0
 44 47  1  6
 44 48  1  0
 45 86  1  0
 45 87  1  0
 46 88  1  0
 47 89  1  0
 47 90  1  0
 47 91  1  0
 48 92  1  0
 48 93  1  0
 49 59  1  0
 49 94  1  0
 49 95  1  0
 50 96  1  0
 50 97  1  0
 50 98  1  0
 51 52  2  0
 51 56  1  0
 51 60  1  0
 52 53  1  0
 52 57  1  0
 53 54  2  0
 53 99  1  0
 54 55  1  0
 54100  1  0
 55 56  2  0
 55 59  1  0
 56101  1  0
 57 58  2  0
 57102  1  0
 60 61  1  0
 60103  1  0
 60104  1  0
 61105  1  0
M  END
