
     RDKit          3D

155172  0  0  0  0  0  0  0  0999 V2000
   -6.0890    0.8990   -4.2520 C   0  0  0  0  0  0  0  0  0  0  0  0
   -5.0090    0.6930   -5.1650 C   0  0  0  0  0  0  0  0  0  0  0  0
   -3.8730   -2.3370   -1.7850 C   0  0  0  0  0  0  0  0  0  0  0  0
   -6.1710    0.1350   -3.0650 C   0  0  0  0  0  0  0  0  0  0  0  0
   -3.9890   -0.2280   -4.8150 C   0  0  0  0  0  0  0  0  0  0  0  0
   -5.0520   -1.7120   -1.6660 C   0  0  0  0  0  0  0  0  0  0  0  0
   -3.0830   -1.9350   -3.0220 C   0  0  2  0  0  0  0  0  0  0  0  0
   -5.1840   -0.8030   -2.7940 C   0  0  0  0  0  0  0  0  0  0  0  0
   -4.0800   -0.9590   -3.6400 C   0  0  0  0  0  0  0  0  0  0  0  0
   -7.0720    1.8870   -4.5130 C   0  0  0  0  0  0  0  0  0  0  0  0
   -7.0430    2.5750   -5.7310 C   0  0  0  0  0  0  0  0  0  0  0  0
   -6.0300    2.3480   -6.6520 C   0  0  0  0  0  0  0  0  0  0  0  0
   -5.0180    1.4290   -6.3700 C   0  0  0  0  0  0  0  0  0  0  0  0
   -7.3460    0.3320   -2.1430 C   0  0  0  0  0  0  0  0  0  0  0  0
   -7.8370    1.7100   -2.1080 N   0  0  0  0  0  0  0  0  0  0  0  0
   -8.1330    2.1780   -3.4650 C   0  0  0  0  0  0  0  0  0  0  0  0
   -3.4030   -3.2880   -0.7720 C   0  0  0  0  0  0  0  0  0  0  0  0
   -4.1530   -3.9240   -0.0430 O   0  0  0  0  0  0  0  0  0  0  0  0
   -7.9810    3.4950   -6.1090 O   0  0  0  0  0  0  0  0  0  0  0  0
   -2.8700   -0.4330   -5.5730 O   0  0  0  0  0  0  0  0  0  0  0  0
   -2.8180   -3.1400   -3.9710 C   0  0  0  0  0  0  0  0  0  0  0  0
   -6.9430    2.6040   -1.3450 C   0  0  0  0  0  0  0  0  0  0  0  0
   -1.8160   -1.1630   -2.6190 C   0  0  0  0  0  0  0  0  0  0  0  0
    6.2540   -1.4100    3.4050 C   0  0  0  0  0  0  0  0  0  0  0  0
   -0.0520   -3.6660   -4.8840 C   0  0  0  0  0  0  0  0  0  0  0  0
    6.1770   -1.2360    2.0050 C   0  0  0  0  0  0  0  0  0  0  0  0
    1.3170   -3.4200   -4.9950 C   0  0  0  0  0  0  0  0  0  0  0  0
    5.3210   -2.2830    4.0560 C   0  0  0  0  0  0  0  0  0  0  0  0
   -0.6050   -3.9380   -3.6430 C   0  0  0  0  0  0  0  0  0  0  0  0
    5.1550   -1.8710    1.2580 C   0  0  0  0  0  0  0  0  0  0  0  0
    2.1400   -3.3230   -3.8460 C   0  0  0  0  0  0  0  0  0  0  0  0
    3.1250   -3.5080    3.8630 C   0  0  0  0  0  0  0  0  0  0  0  0
    2.0920   -4.0540    3.1000 C   0  0  0  0  0  0  0  0  0  0  0  0
    0.0050   -4.5560   -1.3230 N   0  0  0  0  0  0  0  0  0  0  0  0
    0.9800   -4.4710    0.9630 C   0  0  0  0  0  0  0  0  0  0  0  0
    3.0770   -3.0550   -0.3260 C   0  0  0  0  0  0  0  0  0  0  0  0
    4.2180   -2.8250    3.3060 C   0  0  0  0  0  0  0  0  0  0  0  0
    0.2710   -4.0420   -2.5560 C   0  0  0  0  0  0  0  0  0  0  0  0
    2.0570   -3.9340    1.7110 C   0  0  0  0  0  0  0  0  0  0  0  0
    0.9830   -4.2360   -0.4230 C   0  0  0  0  0  0  0  0  0  0  0  0
    4.1600   -2.6480    1.8940 C   0  0  0  0  0  0  0  0  0  0  0  0
    1.6100   -3.6340   -2.5560 C   0  0  0  0  0  0  0  0  0  0  0  0
    3.1020   -3.2220    1.0910 C   0  0  0  0  0  0  0  0  0  0  0  0
    2.0030   -3.5920   -1.1330 C   0  0  0  0  0  0  0  0  0  0  0  0
    5.1110   -1.6890   -0.1410 C   0  0  0  0  0  0  0  0  0  0  0  0
    4.0940   -2.2810   -0.8950 C   0  0  0  0  0  0  0  0  0  0  0  0
    7.2640   -0.6940    4.1080 C   0  0  0  0  0  0  0  0  0  0  0  0
    8.1800    0.1210    3.4240 C   0  0  0  0  0  0  0  0  0  0  0  0
    8.1210    0.2420    2.0460 C   0  0  0  0  0  0  0  0  0  0  0  0
    7.1270   -0.4200    1.3310 C   0  0  0  0  0  0  0  0  0  0  0  0
    7.0670   -0.2670   -0.0530 C   0  0  0  0  0  0  0  0  0  0  0  0
    6.0700   -0.9000   -0.7820 C   0  0  0  0  0  0  0  0  0  0  0  0
    5.6990   -2.6260    5.5240 C   0  0  1  0  0  0  0  0  0  0  0  0
    6.0570   -1.2900    6.2530 C   0  0  2  0  0  0  0  0  0  0  0  0
    7.3630   -0.7310    5.6280 C   0  0  1  0  0  0  0  0  0  0  0  0
    1.8700   -3.2950   -6.3610 C   0  0  0  0  0  0  0  0  0  0  0  0
    1.1650   -2.9720   -7.3110 O   0  0  0  0  0  0  0  0  0  0  0  0
    3.5520   -2.9760   -4.0470 C   0  0  0  0  0  0  0  0  0  0  0  0
    4.3890   -3.8610   -3.8910 O   0  0  0  0  0  0  0  0  0  0  0  0
    3.9280   -1.5800   -4.5360 C   0  0  0  0  0  0  0  0  0  0  0  0
   -1.9380   -4.1480   -3.4220 O   0  0  0  0  0  0  0  0  0  0  0  0
    2.9150   -0.4850   -4.2500 C   0  0  0  0  0  0  0  0  0  0  0  0
    8.6380   -1.4790    6.0560 C   0  0  0  0  0  0  0  0  0  0  0  0
    6.1040   -1.3750    7.7960 C   0  0  0  0  0  0  0  0  0  0  0  0
    6.4650   -0.0620    8.4810 C   0  0  0  0  0  0  0  0  0  0  0  0
    4.8350   -3.5540    6.3760 C   0  0  0  0  0  0  0  0  0  0  0  0
   -0.1440   -5.2220    1.6370 C   0  0  0  0  0  0  0  0  0  0  0  0
   -1.5030    4.8880    2.1870 C   0  0  0  0  0  0  0  0  0  0  0  0
   -2.4260    4.0100    2.7810 C   0  0  0  0  0  0  0  0  0  0  0  0
   -3.9460    4.4510   -2.0350 C   0  0  0  0  0  0  0  0  0  0  0  0
   -4.8380    3.6600   -1.3490 C   0  0  0  0  0  0  0  0  0  0  0  0
   -1.6650    5.2800    0.8340 C   0  0  0  0  0  0  0  0  0  0  0  0
   -3.5110    3.5280    2.0010 C   0  0  0  0  0  0  0  0  0  0  0  0
   -2.8920    5.0070   -1.3200 C   0  0  0  0  0  0  0  0  0  0  0  0
   -4.7250    3.3830   -0.0360 N   0  0  0  0  0  0  0  0  0  0  0  0
   -2.7280    4.7420    0.0560 C   0  0  0  0  0  0  0  0  0  0  0  0
   -3.6780    3.8840    0.6550 C   0  0  0  0  0  0  0  0  0  0  0  0
   -0.4360    5.3400    2.9820 C   0  0  0  0  0  0  0  0  0  0  0  0
   -0.2550    4.9900    4.2770 N   0  0  0  0  0  0  0  0  0  0  0  0
   -1.1560    4.1600    4.8440 C   0  0  0  0  0  0  0  0  0  0  0  0
   -2.2410    3.6330    4.1350 C   0  0  0  0  0  0  0  0  0  0  0  0
   -0.6580    6.2460    0.2340 C   0  0  0  0  0  0  0  0  0  0  0  0
    0.0370    7.1020    1.2930 C   0  0  0  0  0  0  0  0  0  0  0  0
    0.6240    6.2320    2.3900 C   0  0  0  0  0  0  0  0  0  0  0  0
   -4.5360    2.6190    2.6550 C   0  0  0  0  0  0  0  0  0  0  0  0
   -3.9240    1.8060    3.7880 C   0  0  0  0  0  0  0  0  0  0  0  0
   -3.2400    2.7160    4.8010 C   0  0  0  0  0  0  0  0  0  0  0  0
   -5.8290    3.0730   -2.0950 O   0  0  0  0  0  0  0  0  0  0  0  0
   -0.8960    3.8190    6.2830 C   0  0  0  0  0  0  0  0  0  0  0  0
   -5.7660   -1.8370   -0.8670 H   0  0  0  0  0  0  0  0  0  0  0  0
   -6.0240    2.8910   -7.5940 H   0  0  0  0  0  0  0  0  0  0  0  0
   -4.2560    1.2900   -7.1300 H   0  0  0  0  0  0  0  0  0  0  0  0
   -7.1100    0.0120   -1.1230 H   0  0  0  0  0  0  0  0  0  0  0  0
   -8.1540   -0.3300   -2.4790 H   0  0  0  0  0  0  0  0  0  0  0  0
   -8.3410    3.2540   -3.4270 H   0  0  0  0  0  0  0  0  0  0  0  0
   -9.0610    1.6970   -3.8000 H   0  0  0  0  0  0  0  0  0  0  0  0
   -2.3140   -3.3870   -0.6950 H   0  0  0  0  0  0  0  0  0  0  0  0
   -8.7110    3.5180   -5.4740 H   0  0  0  0  0  0  0  0  0  0  0  0
   -2.7990    0.2590   -6.2480 H   0  0  0  0  0  0  0  0  0  0  0  0
   -2.4750   -2.8070   -4.9540 H   0  0  0  0  0  0  0  0  0  0  0  0
   -3.7660   -3.6590   -4.1690 H   0  0  0  0  0  0  0  0  0  0  0  0
   -6.6420    2.0860   -0.4250 H   0  0  0  0  0  0  0  0  0  0  0  0
   -7.5310    3.4790   -1.0360 H   0  0  0  0  0  0  0  0  0  0  0  0
   -1.2200   -0.8850   -3.4960 H   0  0  0  0  0  0  0  0  0  0  0  0
   -2.0590   -0.2320   -2.0900 H   0  0  0  0  0  0  0  0  0  0  0  0
   -1.1760   -1.7390   -1.9480 H   0  0  0  0  0  0  0  0  0  0  0  0
   -0.6710   -3.6920   -5.7780 H   0  0  0  0  0  0  0  0  0  0  0  0
    2.9870   -3.6030    4.9270 H   0  0  0  0  0  0  0  0  0  0  0  0
    1.2960   -4.5580    3.6450 H   0  0  0  0  0  0  0  0  0  0  0  0
   -0.8620   -5.0230   -1.0960 H   0  0  0  0  0  0  0  0  0  0  0  0
    4.0950   -2.0870   -1.9500 H   0  0  0  0  0  0  0  0  0  0  0  0
    8.9450    0.6680    3.9680 H   0  0  0  0  0  0  0  0  0  0  0  0
    8.8480    0.8770    1.5420 H   0  0  0  0  0  0  0  0  0  0  0  0
    7.7920    0.3480   -0.5820 H   0  0  0  0  0  0  0  0  0  0  0  0
    6.0470   -0.7620   -1.8600 H   0  0  0  0  0  0  0  0  0  0  0  0
    6.6230   -3.2110    5.4130 H   0  0  0  0  0  0  0  0  0  0  0  0
    5.2480   -0.5770    6.0230 H   0  0  0  0  0  0  0  0  0  0  0  0
    7.4560    0.3130    5.9620 H   0  0  0  0  0  0  0  0  0  0  0  0
    2.9450   -3.5070   -6.5010 H   0  0  0  0  0  0  0  0  0  0  0  0
    4.1350   -1.6300   -5.6110 H   0  0  0  0  0  0  0  0  0  0  0  0
    4.8700   -1.3160   -4.0400 H   0  0  0  0  0  0  0  0  0  0  0  0
    3.3600    0.4980   -4.4300 H   0  0  0  0  0  0  0  0  0  0  0  0
    2.0430   -0.5710   -4.9050 H   0  0  0  0  0  0  0  0  0  0  0  0
    2.5660   -0.5190   -3.2160 H   0  0  0  0  0  0  0  0  0  0  0  0
    8.7730   -1.4650    7.1410 H   0  0  0  0  0  0  0  0  0  0  0  0
    9.5330   -1.0170    5.6250 H   0  0  0  0  0  0  0  0  0  0  0  0
    8.6340   -2.5230    5.7290 H   0  0  0  0  0  0  0  0  0  0  0  0
    5.1140   -1.6640    8.1700 H   0  0  0  0  0  0  0  0  0  0  0  0
    6.8010   -2.1550    8.1190 H   0  0  0  0  0  0  0  0  0  0  0  0
    6.3200   -0.1520    9.5620 H   0  0  0  0  0  0  0  0  0  0  0  0
    7.5140    0.1960    8.3160 H   0  0  0  0  0  0  0  0  0  0  0  0
    5.8430    0.7620    8.1210 H   0  0  0  0  0  0  0  0  0  0  0  0
    4.6350   -4.5000    5.8650 H   0  0  0  0  0  0  0  0  0  0  0  0
    5.3600   -3.8390    7.2960 H   0  0  0  0  0  0  0  0  0  0  0  0
    3.8960   -3.0780    6.6770 H   0  0  0  0  0  0  0  0  0  0  0  0
   -0.7070   -4.5550    2.2970 H   0  0  0  0  0  0  0  0  0  0  0  0
    0.2550   -6.0640    2.2150 H   0  0  0  0  0  0  0  0  0  0  0  0
   -0.8530   -5.6460    0.9200 H   0  0  0  0  0  0  0  0  0  0  0  0
   -4.0630    4.6250   -3.0980 H   0  0  0  0  0  0  0  0  0  0  0  0
   -2.1890    5.6300   -1.8650 H   0  0  0  0  0  0  0  0  0  0  0  0
   -1.1550    6.9370   -0.4570 H   0  0  0  0  0  0  0  0  0  0  0  0
    0.0850    5.6680   -0.3310 H   0  0  0  0  0  0  0  0  0  0  0  0
   -0.6870    7.8050    1.7270 H   0  0  0  0  0  0  0  0  0  0  0  0
    0.8250    7.7040    0.8250 H   0  0  0  0  0  0  0  0  0  0  0  0
    1.4270    5.6020    1.9900 H   0  0  0  0  0  0  0  0  0  0  0  0
    1.0550    6.8670    3.1710 H   0  0  0  0  0  0  0  0  0  0  0  0
   -5.3590    3.2380    3.0330 H   0  0  0  0  0  0  0  0  0  0  0  0
   -4.9550    1.9110    1.9310 H   0  0  0  0  0  0  0  0  0  0  0  0
   -3.1900    1.0980    3.3770 H   0  0  0  0  0  0  0  0  0  0  0  0
   -4.7000    1.2130    4.2850 H   0  0  0  0  0  0  0  0  0  0  0  0
   -2.7490    2.0780    5.5440 H   0  0  0  0  0  0  0  0  0  0  0  0
   -3.9850    3.3300    5.3220 H   0  0  0  0  0  0  0  0  0  0  0  0
   -0.6220    2.7640    6.3790 H   0  0  0  0  0  0  0  0  0  0  0  0
   -1.7770    4.0270    6.8950 H   0  0  0  0  0  0  0  0  0  0  0  0
   -0.0700    4.4160    6.6800 H   0  0  0  0  0  0  0  0  0  0  0  0
  1  2  2  0
  1  4  1  0
  1 10  1  0
  2  5  1  0
  2 13  1  0
  3  6  2  0
  3  7  1  0
  3 17  1  0
  4  8  2  0
  4 14  1  0
  5  9  2  0
  5 20  1  0
  6  8  1  0
  6 90  1  0
  7  9  1  0
  7 21  1  6
  7 23  1  0
  8  9  1  0
 10 11  2  0
 10 16  1  0
 11 12  1  0
 11 19  1  0
 12 13  2  0
 12 91  1  0
 13 92  1  0
 14 15  1  0
 14 93  1  0
 14 94  1  0
 15 16  1  0
 15 22  1  0
 16 95  1  0
 16 96  1  0
 17 18  2  0
 17 97  1  0
 19 98  1  0
 20 99  1  0
 21 61  1  0
 21100  1  0
 21101  1  0
 22 88  1  0
 22102  1  0
 22103  1  0
 23104  1  0
 23105  1  0
 23106  1  0
 24 26  2  0
 24 28  1  0
 24 47  1  0
 25 27  2  0
 25 29  1  0
 25107  1  0
 26 30  1  0
 26 50  1  0
 27 31  1  0
 27 56  1  0
 28 37  2  0
 28 53  1  0
 29 38  2  0
 29 61  1  0
 30 41  2  0
 30 45  1  0
 31 42  2  0
 31 58  1  0
 32 33  2  0
 32 37  1  0
 32108  1  0
 33 39  1  0
 33109  1  0
 34 38  1  0
 34 40  1  0
 34110  1  0
 35 39  1  0
 35 40  2  0
 35 67  1  0
 36 43  1  0
 36 44  2  0
 36 46  1  0
 37 41  1  0
 38 42  1  0
 39 43  2  0
 40 44  1  0
 41 43  1  0
 42 44  1  0
 45 46  2  0
 45 52  1  0
 46111  1  0
 47 48  2  0
 47 55  1  0
 48 49  1  0
 48112  1  0
 49 50  2  0
 49113  1  0
 50 51  1  0
 51 52  2  0
 51114  1  0
 52115  1  0
 53 54  1  0
 53 66  1  0
 53116  1  6
 54 55  1  0
 54 64  1  0
 54117  1  1
 55 63  1  0
 55118  1  1
 56 57  2  0
 56119  1  0
 58 59  2  0
 58 60  1  0
 60 62  1  0
 60120  1  0
 60121  1  0
 62122  1  0
 62123  1  0
 62124  1  0
 63125  1  0
 63126  1  0
 63127  1  0
 64 65  1  0
 64128  1  0
 64129  1  0
 65130  1  0
 65131  1  0
 65132  1  0
 66133  1  0
 66134  1  0
 66135  1  0
 67136  1  0
 67137  1  0
 67138  1  0
 68 69  1  0
 68 72  2  0
 68 78  1  0
 69 73  2  0
 69 81  1  0
 70 71  2  0
 70 74  1  0
 70139  1  0
 71 75  1  0
 71 88  1  0
 72 76  1  0
 72 82  1  0
 73 77  1  0
 73 85  1  0
 74 76  2  0
 74140  1  0
 75 77  2  0
 76 77  1  0
 78 79  2  0
 78 84  1  0
 79 80  1  0
 80 81  2  0
 80 89  1  0
 81 87  1  0
 82 83  1  0
 82141  1  0
 82142  1  0
 83 84  1  0
 83143  1  0
 83144  1  0
 84145  1  0
 84146  1  0
 85 86  1  0
 85147  1  0
 85148  1  0
 86 87  1  0
 86149  1  0
 86150  1  0
 87151  1  0
 87152  1  0
 89153  1  0
 89154  1  0
 89155  1  0
M  END
