
     RDKit          3D

149166  0  0  0  0  0  0  0  0999 V2000
   -1.3520   -3.2280    4.6180 C   0  0  0  0  0  0  0  0  0  0  0  0
   -0.1880   -3.5660    5.3300 C   0  0  0  0  0  0  0  0  0  0  0  0
    2.7470   -0.3120   -0.8150 C   0  0  0  0  0  0  0  0  0  0  0  0
    3.9430   -0.6420   -0.1490 C   0  0  0  0  0  0  0  0  0  0  0  0
   -1.2040   -2.6000    3.3560 C   0  0  0  0  0  0  0  0  0  0  0  0
    1.0730   -3.2070    4.8260 C   0  0  0  0  0  0  0  0  0  0  0  0
    1.5450   -0.6340   -0.1640 C   0  0  0  0  0  0  0  0  0  0  0  0
    3.8930   -1.2410    1.1290 C   0  0  0  0  0  0  0  0  0  0  0  0
    0.2570   -1.5110    1.6600 C   0  0  0  0  0  0  0  0  0  0  0  0
    2.5420   -2.1390    3.0910 C   0  0  0  0  0  0  0  0  0  0  0  0
    0.0850   -2.1990    2.8730 C   0  0  0  0  0  0  0  0  0  0  0  0
    1.2500   -2.5080    3.6090 C   0  0  0  0  0  0  0  0  0  0  0  0
    1.5020   -1.2250    1.1040 C   0  0  0  0  0  0  0  0  0  0  0  0
    2.6740   -1.5410    1.7980 C   0  0  0  0  0  0  0  0  0  0  0  0
   -2.6280   -3.5510    5.1570 C   0  0  0  0  0  0  0  0  0  0  0  0
   -2.7090   -4.3130    6.3510 C   0  0  0  0  0  0  0  0  0  0  0  0
   -1.5360   -4.6620    7.0280 C   0  0  0  0  0  0  0  0  0  0  0  0
   -0.2930   -4.2780    6.5320 C   0  0  0  0  0  0  0  0  0  0  0  0
    2.7970    0.3180   -2.0860 C   0  0  0  0  0  0  0  0  0  0  0  0
    4.0510    0.5470   -2.6890 C   0  0  0  0  0  0  0  0  0  0  0  0
    5.2410    0.2120   -2.0360 C   0  0  0  0  0  0  0  0  0  0  0  0
    5.1740   -0.3820   -0.7730 C   0  0  0  0  0  0  0  0  0  0  0  0
   -3.8260   -3.1130    4.5340 C   0  0  0  0  0  0  0  0  0  0  0  0
   -5.0630   -3.5390    5.0400 C   0  0  0  0  0  0  0  0  0  0  0  0
   -5.1230   -4.3360    6.1820 C   0  0  0  0  0  0  0  0  0  0  0  0
   -3.9590   -4.7040    6.8530 C   0  0  0  0  0  0  0  0  0  0  0  0
   -2.4770   -2.4770    2.4940 C   0  0  2  0  0  0  0  0  0  0  0  0
   -3.6970   -2.1040    3.3940 C   0  0  1  0  0  0  0  0  0  0  0  0
   -6.4300   -4.7860    6.7020 C   0  0  0  0  0  0  0  0  0  0  0  0
   -7.4760   -4.5710    6.1060 O   0  0  0  0  0  0  0  0  0  0  0  0
   -4.9590   -1.8400    2.5350 C   0  0  0  0  0  0  0  0  0  0  0  0
   -5.8890   -0.7920    3.1400 C   0  0  0  0  0  0  0  0  0  0  0  0
   -2.7580   -3.7460    1.6320 C   0  0  0  0  0  0  0  0  0  0  0  0
    1.5500    0.7050   -2.8700 C   0  0  0  0  0  0  0  0  0  0  0  0
    3.7840   -2.4330    3.9140 C   0  0  0  0  0  0  0  0  0  0  0  0
    6.5650    0.4350   -2.7090 C   0  0  0  0  0  0  0  0  0  0  0  0
   -3.8950   -0.3020   -4.4290 C   0  0  0  0  0  0  0  0  0  0  0  0
    2.3070   -3.3930   -6.0680 C   0  0  0  0  0  0  0  0  0  0  0  0
   -3.7190   -1.6790   -4.1260 C   0  0  0  0  0  0  0  0  0  0  0  0
    1.3320   -4.1200   -5.3920 C   0  0  0  0  0  0  0  0  0  0  0  0
   -2.8410    0.3920   -5.0550 C   0  0  0  0  0  0  0  0  0  0  0  0
    2.0680   -2.0620   -6.3950 C   0  0  0  0  0  0  0  0  0  0  0  0
   -2.4260   -2.3150   -4.3550 C   0  0  0  0  0  0  0  0  0  0  0  0
    0.1100   -3.5250   -5.0440 C   0  0  0  0  0  0  0  0  0  0  0  0
   -0.5810    0.4810   -6.0570 C   0  0  0  0  0  0  0  0  0  0  0  0
    0.6220   -0.1260   -6.3990 C   0  0  0  0  0  0  0  0  0  0  0  0
   -1.6160   -0.2190   -5.3940 C   0  0  0  0  0  0  0  0  0  0  0  0
    0.8490   -1.4570   -6.0700 C   0  0  0  0  0  0  0  0  0  0  0  0
   -1.4120   -1.5760   -5.0440 C   0  0  0  0  0  0  0  0  0  0  0  0
   -0.1580   -2.1830   -5.3870 C   0  0  0  0  0  0  0  0  0  0  0  0
   -2.0430   -3.6330   -3.9510 C   0  0  0  0  0  0  0  0  0  0  0  0
   -0.8350   -4.2380   -4.3220 C   0  0  0  0  0  0  0  0  0  0  0  0
   -5.1350    0.3270   -4.1370 C   0  0  0  0  0  0  0  0  0  0  0  0
   -6.2080   -0.3700   -3.5950 C   0  0  0  0  0  0  0  0  0  0  0  0
   -6.0750   -1.7180   -3.3700 C   0  0  0  0  0  0  0  0  0  0  0  0
   -4.8720   -2.3630   -3.6490 C   0  0  0  0  0  0  0  0  0  0  0  0
   -2.7930   -4.4340   -2.9570 C   0  0  0  0  0  0  0  0  0  0  0  0
   -3.3070   -5.5010   -3.2880 O   0  0  0  0  0  0  0  0  0  0  0  0
   -2.8210   -3.9090   -1.5340 C   0  0  0  0  0  0  0  0  0  0  0  0
   -3.0520    1.7950   -5.4680 C   0  0  0  0  0  0  0  0  0  0  0  0
   -3.0850    2.7100   -4.6600 O   0  0  0  0  0  0  0  0  0  0  0  0
   -7.1500   -2.3940   -2.8780 O   0  0  0  0  0  0  0  0  0  0  0  0
   -2.1160   -4.8750   -0.5750 C   0  0  0  0  0  0  0  0  0  0  0  0
   -1.6230   -4.1670    0.6870 C   0  0  0  0  0  0  0  0  0  0  0  0
    2.0780    4.1760    0.7260 C   0  0  0  0  0  0  0  0  0  0  0  0
    2.7310    4.2810   -0.5290 C   0  0  0  0  0  0  0  0  0  0  0  0
    5.2300    7.5550    2.5660 C   0  0  0  0  0  0  0  0  0  0  0  0
    5.8390    7.6320    1.3040 C   0  0  0  0  0  0  0  0  0  0  0  0
    2.5380    4.9270    1.8530 C   0  0  0  0  0  0  0  0  0  0  0  0
    3.8290    5.1650   -0.6120 C   0  0  0  0  0  0  0  0  0  0  0  0
    4.1610    6.6570    2.7550 C   0  0  0  0  0  0  0  0  0  0  0  0
    5.3650    6.8100    0.2760 C   0  0  0  0  0  0  0  0  0  0  0  0
    3.6500    5.8270    1.7180 C   0  0  0  0  0  0  0  0  0  0  0  0
    4.2820    5.9320    0.4660 C   0  0  0  0  0  0  0  0  0  0  0  0
    0.9220    3.3450    0.8500 C   0  0  0  0  0  0  0  0  0  0  0  0
    0.4320    2.6140   -0.2550 C   0  0  0  0  0  0  0  0  0  0  0  0
    1.1610    2.6340   -1.4590 C   0  0  0  0  0  0  0  0  0  0  0  0
    2.2410    3.5160   -1.6270 C   0  0  0  0  0  0  0  0  0  0  0  0
    5.6940    8.3900    3.5990 C   0  0  0  0  0  0  0  0  0  0  0  0
    6.7470    9.2810    3.3840 C   0  0  0  0  0  0  0  0  0  0  0  0
    7.3470    9.3570    2.1310 C   0  0  0  0  0  0  0  0  0  0  0  0
    6.8960    8.5350    1.0980 C   0  0  0  0  0  0  0  0  0  0  0  0
    0.2370    3.2520    2.0890 C   0  0  0  0  0  0  0  0  0  0  0  0
   -0.9310    2.4860    2.2040 C   0  0  0  0  0  0  0  0  0  0  0  0
   -1.4450    1.8220    1.1020 C   0  0  0  0  0  0  0  0  0  0  0  0
   -0.7720    1.8880   -0.1140 C   0  0  0  0  0  0  0  0  0  0  0  0
    0.7240    3.9420    3.1910 C   0  0  0  0  0  0  0  0  0  0  0  0
    1.8480    4.7570    3.0720 C   0  0  0  0  0  0  0  0  0  0  0  0
    2.7530    3.6660   -3.0190 C   0  0  0  0  0  0  0  0  0  0  0  0
    3.8280    4.1540   -3.3470 O   0  0  0  0  0  0  0  0  0  0  0  0
    0.7170    1.8220   -2.4750 O   0  0  0  0  0  0  0  0  0  0  0  0
    1.9450   -3.5010    5.4060 H   0  0  0  0  0  0  0  0  0  0  0  0
    0.6050   -0.4350   -0.6690 H   0  0  0  0  0  0  0  0  0  0  0  0
    4.8400   -1.4900    1.5990 H   0  0  0  0  0  0  0  0  0  0  0  0
   -0.6100   -1.2010    1.0830 H   0  0  0  0  0  0  0  0  0  0  0  0
   -1.5740   -5.2330    7.9510 H   0  0  0  0  0  0  0  0  0  0  0  0
    0.6010   -4.5570    7.0880 H   0  0  0  0  0  0  0  0  0  0  0  0
    4.1080    1.0000   -3.6790 H   0  0  0  0  0  0  0  0  0  0  0  0
    6.1010   -0.6450   -0.2690 H   0  0  0  0  0  0  0  0  0  0  0  0
   -5.9980   -3.2570    4.5590 H   0  0  0  0  0  0  0  0  0  0  0  0
   -4.0170   -5.2970    7.7610 H   0  0  0  0  0  0  0  0  0  0  0  0
   -2.3750   -1.6300    1.8090 H   0  0  0  0  0  0  0  0  0  0  0  0
   -3.4450   -1.1500    3.8810 H   0  0  0  0  0  0  0  0  0  0  0  0
   -6.4160   -5.3410    7.6550 H   0  0  0  0  0  0  0  0  0  0  0  0
   -5.5160   -2.7640    2.3460 H   0  0  0  0  0  0  0  0  0  0  0  0
   -4.6600   -1.4550    1.5510 H   0  0  0  0  0  0  0  0  0  0  0  0
   -6.2300   -1.0630    4.1440 H   0  0  0  0  0  0  0  0  0  0  0  0
   -5.3850    0.1800    3.2070 H   0  0  0  0  0  0  0  0  0  0  0  0
   -6.7710   -0.6670    2.5040 H   0  0  0  0  0  0  0  0  0  0  0  0
   -3.0030   -4.5960    2.2750 H   0  0  0  0  0  0  0  0  0  0  0  0
   -3.6560   -3.5530    1.0400 H   0  0  0  0  0  0  0  0  0  0  0  0
    0.8900   -0.1680   -2.9180 H   0  0  0  0  0  0  0  0  0  0  0  0
    1.8320    0.9020   -3.9100 H   0  0  0  0  0  0  0  0  0  0  0  0
    3.6210   -2.2110    4.9730 H   0  0  0  0  0  0  0  0  0  0  0  0
    4.6330   -1.8040    3.6340 H   0  0  0  0  0  0  0  0  0  0  0  0
    4.0700   -3.4830    3.8010 H   0  0  0  0  0  0  0  0  0  0  0  0
    6.5280    1.3180   -3.3560 H   0  0  0  0  0  0  0  0  0  0  0  0
    6.8390   -0.4370   -3.3100 H   0  0  0  0  0  0  0  0  0  0  0  0
    7.3510    0.6160   -1.9690 H   0  0  0  0  0  0  0  0  0  0  0  0
    3.2550   -3.8580   -6.3210 H   0  0  0  0  0  0  0  0  0  0  0  0
    1.5390   -5.1570   -5.1340 H   0  0  0  0  0  0  0  0  0  0  0  0
    2.8480   -1.5050   -6.9100 H   0  0  0  0  0  0  0  0  0  0  0  0
   -0.6880    1.5340   -6.3150 H   0  0  0  0  0  0  0  0  0  0  0  0
    1.3830    0.4590   -6.9090 H   0  0  0  0  0  0  0  0  0  0  0  0
   -0.6260   -5.2600   -4.0010 H   0  0  0  0  0  0  0  0  0  0  0  0
   -5.2830    1.3890   -4.3230 H   0  0  0  0  0  0  0  0  0  0  0  0
   -7.1420    0.1390   -3.3780 H   0  0  0  0  0  0  0  0  0  0  0  0
   -4.8670   -3.4390   -3.5230 H   0  0  0  0  0  0  0  0  0  0  0  0
   -2.3410   -2.9230   -1.5020 H   0  0  0  0  0  0  0  0  0  0  0  0
   -3.8650   -3.7620   -1.2380 H   0  0  0  0  0  0  0  0  0  0  0  0
   -3.1350    1.9680   -6.5570 H   0  0  0  0  0  0  0  0  0  0  0  0
   -6.9110   -3.3270   -2.7440 H   0  0  0  0  0  0  0  0  0  0  0  0
   -1.2480   -5.3190   -1.0790 H   0  0  0  0  0  0  0  0  0  0  0  0
   -2.7850   -5.7030   -0.3180 H   0  0  0  0  0  0  0  0  0  0  0  0
   -0.9480   -4.8360    1.2290 H   0  0  0  0  0  0  0  0  0  0  0  0
   -1.0410   -3.3050    0.3610 H   0  0  0  0  0  0  0  0  0  0  0  0
    4.3610    5.2800   -1.5530 H   0  0  0  0  0  0  0  0  0  0  0  0
    3.7110    6.6270    3.7440 H   0  0  0  0  0  0  0  0  0  0  0  0
    5.8350    6.8710   -0.7060 H   0  0  0  0  0  0  0  0  0  0  0  0
    5.2380    8.3470    4.5870 H   0  0  0  0  0  0  0  0  0  0  0  0
    7.0970    9.9180    4.1920 H   0  0  0  0  0  0  0  0  0  0  0  0
    8.1700   10.0450    1.9570 H   0  0  0  0  0  0  0  0  0  0  0  0
    7.3760    8.6050    0.1230 H   0  0  0  0  0  0  0  0  0  0  0  0
   -1.4610    2.4250    3.1510 H   0  0  0  0  0  0  0  0  0  0  0  0
   -2.3650    1.2500    1.1870 H   0  0  0  0  0  0  0  0  0  0  0  0
   -1.2020    1.3680   -0.9680 H   0  0  0  0  0  0  0  0  0  0  0  0
    0.2290    3.8720    4.1550 H   0  0  0  0  0  0  0  0  0  0  0  0
    2.1610    5.2740    3.9750 H   0  0  0  0  0  0  0  0  0  0  0  0
    2.0800    3.3000   -3.8120 H   0  0  0  0  0  0  0  0  0  0  0  0
  1  2  1  0
  1  5  2  0
  1 15  1  0
  2  6  2  0
  2 18  1  0
  3  4  2  0
  3  7  1  0
  3 19  1  0
  4  8  1  0
  4 22  1  0
  5 11  1  0
  5 27  1  0
  6 12  1  0
  6 92  1  0
  7 13  2  0
  7 93  1  0
  8 14  2  0
  8 94  1  0
  9 11  2  0
  9 13  1  0
  9 95  1  0
 10 12  2  0
 10 14  1  0
 10 35  1  0
 11 12  1  0
 13 14  1  0
 15 16  2  0
 15 23  1  0
 16 17  1  0
 16 26  1  0
 17 18  2  0
 17 96  1  0
 18 97  1  0
 19 20  2  0
 19 34  1  0
 20 21  1  0
 20 98  1  0
 21 22  2  0
 21 36  1  0
 22 99  1  0
 23 24  2  0
 23 28  1  0
 24 25  1  0
 24100  1  0
 25 26  2  0
 25 29  1  0
 26101  1  0
 27 28  1  0
 27 33  1  0
 27102  1  6
 28 31  1  0
 28103  1  1
 29 30  2  0
 29104  1  0
 31 32  1  0
 31105  1  0
 31106  1  0
 32107  1  0
 32108  1  0
 32109  1  0
 33 64  1  0
 33110  1  0
 33111  1  0
 34 91  1  0
 34112  1  0
 34113  1  0
 35114  1  0
 35115  1  0
 35116  1  0
 36117  1  0
 36118  1  0
 36119  1  0
 37 39  2  0
 37 41  1  0
 37 53  1  0
 38 40  2  0
 38 42  1  0
 38120  1  0
 39 43  1  0
 39 56  1  0
 40 44  1  0
 40121  1  0
 41 47  2  0
 41 60  1  0
 42 48  2  0
 42122  1  0
 43 49  2  0
 43 51  1  0
 44 50  2  0
 44 52  1  0
 45 46  2  0
 45 47  1  0
 45123  1  0
 46 48  1  0
 46124  1  0
 47 49  1  0
 48 50  1  0
 49 50  1  0
 51 52  2  0
 51 57  1  0
 52125  1  0
 53 54  2  0
 53126  1  0
 54 55  1  0
 54127  1  0
 55 56  2  0
 55 62  1  0
 56128  1  0
 57 58  2  0
 57 59  1  0
 59 63  1  0
 59129  1  0
 59130  1  0
 60 61  2  0
 60131  1  0
 62132  1  0
 63 64  1  0
 63133  1  0
 63134  1  0
 64135  1  0
 64136  1  0
 65 66  1  0
 65 69  2  0
 65 75  1  0
 66 70  2  0
 66 78  1  0
 67 68  2  0
 67 71  1  0
 67 79  1  0
 68 72  1  0
 68 82  1  0
 69 73  1  0
 69 88  1  0
 70 74  1  0
 70137  1  0
 71 73  2  0
 71138  1  0
 72 74  2  0
 72139  1  0
 73 74  1  0
 75 76  2  0
 75 83  1  0
 76 77  1  0
 76 86  1  0
 77 78  2  0
 77 91  1  0
 78 89  1  0
 79 80  2  0
 79140  1  0
 80 81  1  0
 80141  1  0
 81 82  2  0
 81142  1  0
 82143  1  0
 83 84  2  0
 83 87  1  0
 84 85  1  0
 84144  1  0
 85 86  2  0
 85145  1  0
 86146  1  0
 87 88  2  0
 87147  1  0
 88148  1  0
 89 90  2  0
 89149  1  0
M  END
