
     RDKit          3D

159177  0  0  0  0  0  0  0  0999 V2000
    0.1790    7.4530    7.9800 C   0  0  0  0  0  0  0  0  0  0  0  0
   -0.4330    6.2710    8.4590 C   0  0  0  0  0  0  0  0  0  0  0  0
    0.7300    0.0250    3.8580 C   0  0  0  0  0  0  0  0  0  0  0  0
    0.9600    7.4900    6.7890 C   0  0  0  0  0  0  0  0  0  0  0  0
    1.5670    1.0220    3.0360 C   0  0  0  0  0  0  0  0  0  0  0  0
    0.2240    0.5730    4.9770 C   0  0  0  0  0  0  0  0  0  0  0  0
   -0.2600    5.0680    7.7490 C   0  0  0  0  0  0  0  0  0  0  0  0
    1.9100    3.5940    3.6780 C   0  0  0  0  0  0  0  0  0  0  0  0
    1.7190    5.8850    4.9000 N   0  0  0  0  0  0  0  0  0  0  0  0
    0.3560    2.8130    5.9630 C   0  0  0  0  0  0  0  0  0  0  0  0
    1.4700    2.2700    3.8670 C   0  0  0  0  0  0  0  0  0  0  0  0
    0.7140    1.9220    4.9850 C   0  0  0  0  0  0  0  0  0  0  0  0
    1.1010    6.2890    6.0880 C   0  0  0  0  0  0  0  0  0  0  0  0
    1.5530    4.5200    4.6840 C   0  0  0  0  0  0  0  0  0  0  0  0
    0.5170    5.1540    6.6000 C   0  0  0  0  0  0  0  0  0  0  0  0
    0.8070    4.0980    5.7640 C   0  0  0  0  0  0  0  0  0  0  0  0
   -0.7440    3.7110    8.0070 C   0  0  0  0  0  0  0  0  0  0  0  0
   -0.4330    2.5920    7.1270 C   0  0  0  0  0  0  0  0  0  0  0  0
   -0.7540    1.1170    7.3580 C   0  0  0  0  0  0  0  0  0  0  0  0
   -0.7130    0.1760    6.0830 C   0  0  0  0  0  0  0  0  0  0  0  0
   -1.3200    6.2120    9.6890 C   0  0  2  0  0  0  0  0  0  0  0  0
   -1.3820    4.7570   10.2660 C   0  0  1  0  0  0  0  0  0  0  0  0
   -1.6060    3.5810    9.2580 C   0  0  1  0  0  0  0  0  0  0  0  0
   -0.0890    4.4780   11.0240 C   0  0  0  0  0  0  0  0  0  0  0  0
   -0.0540    3.8310   12.0660 O   0  0  0  0  0  0  0  0  0  0  0  0
    2.4230    4.0380    2.5040 O   0  0  0  0  0  0  0  0  0  0  0  0
   -2.6870    6.8420    9.3240 C   0  0  0  0  0  0  0  0  0  0  0  0
   -3.7670    6.8290   10.4070 C   0  0  0  0  0  0  0  0  0  0  0  0
   -3.0850    3.4340    8.8870 C   0  0  0  0  0  0  0  0  0  0  0  0
   -3.3870    7.6090   11.6540 C   0  0  0  0  0  0  0  0  0  0  0  0
    1.1860    3.0420   -2.1030 C   0  0  0  0  0  0  0  0  0  0  0  0
    1.9510    1.9560   -1.6290 C   0  0  0  0  0  0  0  0  0  0  0  0
    3.8760    5.5630    0.6430 C   0  0  0  0  0  0  0  0  0  0  0  0
    1.4290    4.3360   -1.6510 C   0  0  0  0  0  0  0  0  0  0  0  0
    3.0180    2.1710   -0.7160 C   0  0  0  0  0  0  0  0  0  0  0  0
    2.8780    5.7920   -0.2200 C   0  0  0  0  0  0  0  0  0  0  0  0
    4.1730    4.0570    0.8140 C   0  0  2  0  0  0  0  0  0  0  0  0
    2.4650    4.5080   -0.7490 C   0  0  0  0  0  0  0  0  0  0  0  0
    3.2380    3.4610   -0.2300 C   0  0  0  0  0  0  0  0  0  0  0  0
    0.6640    5.5440   -2.1190 C   0  0  0  0  0  0  0  0  0  0  0  0
    0.7070    6.6770   -1.0730 C   0  0  0  0  0  0  0  0  0  0  0  0
    2.1470    7.0200   -0.6390 C   0  0  0  0  0  0  0  0  0  0  0  0
    3.9080    1.0490   -0.3130 C   0  0  0  0  0  0  0  0  0  0  0  0
    4.2530    0.9170    0.8610 O   0  0  0  0  0  0  0  0  0  0  0  0
    4.4500    0.1240   -1.3740 C   0  0  0  0  0  0  0  0  0  0  0  0
    1.7210    0.6580   -2.0250 O   0  0  0  0  0  0  0  0  0  0  0  0
    3.7880    3.6480    2.2650 C   0  0  0  0  0  0  0  0  0  0  0  0
    5.6520    3.8050    0.5150 C   0  0  0  0  0  0  0  0  0  0  0  0
   -4.4690    1.8450   -7.5180 C   0  0  0  0  0  0  0  0  0  0  0  0
   -1.3780   -6.3110   -9.0950 C   0  0  0  0  0  0  0  0  0  0  0  0
    1.3670   -2.3410   -3.9200 C   0  0  0  0  0  0  0  0  0  0  0  0
   -3.4750    1.9690   -6.3780 C   0  0  0  0  0  0  0  0  0  0  0  0
   -4.3580    0.6780   -8.1740 C   0  0  0  0  0  0  0  0  0  0  0  0
   -0.4070   -6.5770   -8.2080 C   0  0  0  0  0  0  0  0  0  0  0  0
    1.4700   -3.6450   -4.4800 C   0  0  0  0  0  0  0  0  0  0  0  0
   -1.9350   -4.9090   -8.9380 C   0  0  0  0  0  0  0  0  0  0  0  0
    0.4580   -1.4070   -4.4080 C   0  0  0  0  0  0  0  0  0  0  0  0
    0.7190   -5.2760   -6.3550 C   0  0  0  0  0  0  0  0  0  0  0  0
   -1.7290    0.1320   -5.7190 C   0  0  0  0  0  0  0  0  0  0  0  0
   -2.8130   -1.3230   -8.0050 C   0  0  0  0  0  0  0  0  0  0  0  0
   -2.7420    0.6670   -6.4780 C   0  0  0  0  0  0  0  0  0  0  0  0
   -3.2610   -0.0670   -7.5700 C   0  0  0  0  0  0  0  0  0  0  0  0
   -0.2240   -5.3900   -7.3920 C   0  0  0  0  0  0  0  0  0  0  0  0
    0.7180   -4.0620   -5.6160 C   0  0  0  0  0  0  0  0  0  0  0  0
   -1.1180   -4.3770   -7.8060 C   0  0  0  0  0  0  0  0  0  0  0  0
   -0.3020   -1.8600   -5.4740 C   0  0  0  0  0  0  0  0  0  0  0  0
   -1.3180   -1.1170   -6.1390 C   0  0  0  0  0  0  0  0  0  0  0  0
   -1.8270   -1.8960   -7.2240 C   0  0  0  0  0  0  0  0  0  0  0  0
   -0.1850   -3.0930   -6.0760 C   0  0  0  0  0  0  0  0  0  0  0  0
   -1.0930   -3.1770   -7.1490 C   0  0  0  0  0  0  0  0  0  0  0  0
    0.2770    0.0660   -3.9990 C   0  0  2  0  0  0  0  0  0  0  0  0
   -1.1460    0.6580   -4.4350 C   0  0  0  0  0  0  0  0  0  0  0  0
   -5.1000    0.0600   -9.3000 C   0  0  0  0  0  0  0  0  0  0  0  0
   -4.1820   -0.8740  -10.1030 C   0  0  0  0  0  0  0  0  0  0  0  0
   -3.4570   -1.9170   -9.2240 C   0  0  0  0  0  0  0  0  0  0  0  0
    0.4590   -7.7610   -7.9680 C   0  0  0  0  0  0  0  0  0  0  0  0
    1.8080   -7.3150   -7.3850 C   0  0  0  0  0  0  0  0  0  0  0  0
    1.6700   -6.4390   -6.1100 C   0  0  2  0  0  0  0  0  0  0  0  0
    1.2940   -7.2400   -4.8550 C   0  0  0  0  0  0  0  0  0  0  0  0
    0.4980   -6.8030   -4.0090 O   0  0  0  0  0  0  0  0  0  0  0  0
    1.9920   -8.5570   -4.5700 C   0  0  0  0  0  0  0  0  0  0  0  0
    1.3760    0.8570   -4.7100 C   0  0  0  0  0  0  0  0  0  0  0  0
    1.1950    1.8910   -5.3520 O   0  0  0  0  0  0  0  0  0  0  0  0
    2.2900   -4.5310   -3.8260 O   0  0  0  0  0  0  0  0  0  0  0  0
    2.1950   -2.0210   -2.8840 O   0  0  0  0  0  0  0  0  0  0  0  0
    3.4670   -8.3470   -4.2590 C   0  0  0  0  0  0  0  0  0  0  0  0
    4.0960   -9.5880   -3.6480 C   0  0  0  0  0  0  0  0  0  0  0  0
    0.3990    0.3030   -2.4610 C   0  0  0  0  0  0  0  0  0  0  0  0
    0.0450    8.3850    8.5260 H   0  0  0  0  0  0  0  0  0  0  0  0
    0.5410   -0.9820    3.5200 H   0  0  0  0  0  0  0  0  0  0  0  0
    1.4050    8.4140    6.4360 H   0  0  0  0  0  0  0  0  0  0  0  0
    1.1260    1.1650    2.0430 H   0  0  0  0  0  0  0  0  0  0  0  0
    2.6010    0.6690    2.9630 H   0  0  0  0  0  0  0  0  0  0  0  0
    2.2140    6.4990    4.2700 H   0  0  0  0  0  0  0  0  0  0  0  0
   -0.0130    0.7410    8.0800 H   0  0  0  0  0  0  0  0  0  0  0  0
   -1.7390    1.0070    7.8230 H   0  0  0  0  0  0  0  0  0  0  0  0
   -1.7270    0.1620    5.6560 H   0  0  0  0  0  0  0  0  0  0  0  0
   -0.4950   -0.8470    6.4130 H   0  0  0  0  0  0  0  0  0  0  0  0
   -0.8520    6.8540   10.4500 H   0  0  0  0  0  0  0  0  0  0  0  0
   -2.1590    4.7140   11.0370 H   0  0  0  0  0  0  0  0  0  0  0  0
   -1.3030    2.6550    9.7660 H   0  0  0  0  0  0  0  0  0  0  0  0
    0.8410    4.8240   10.5440 H   0  0  0  0  0  0  0  0  0  0  0  0
   -2.5220    7.8900    9.0330 H   0  0  0  0  0  0  0  0  0  0  0  0
   -3.0950    6.3650    8.4260 H   0  0  0  0  0  0  0  0  0  0  0  0
   -4.0400    5.8020   10.6750 H   0  0  0  0  0  0  0  0  0  0  0  0
   -4.6750    7.2800    9.9840 H   0  0  0  0  0  0  0  0  0  0  0  0
   -3.7100    3.4310    9.7840 H   0  0  0  0  0  0  0  0  0  0  0  0
   -3.2740    2.4900    8.3660 H   0  0  0  0  0  0  0  0  0  0  0  0
   -3.4300    4.2300    8.2240 H   0  0  0  0  0  0  0  0  0  0  0  0
   -3.1540    8.6490   11.4090 H   0  0  0  0  0  0  0  0  0  0  0  0
   -2.5260    7.1710   12.1600 H   0  0  0  0  0  0  0  0  0  0  0  0
   -4.2250    7.6110   12.3590 H   0  0  0  0  0  0  0  0  0  0  0  0
    0.4060    2.9080   -2.8420 H   0  0  0  0  0  0  0  0  0  0  0  0
    4.3780    6.3250    1.2220 H   0  0  0  0  0  0  0  0  0  0  0  0
    1.0960    5.8970   -3.0640 H   0  0  0  0  0  0  0  0  0  0  0  0
   -0.3820    5.2750   -2.3070 H   0  0  0  0  0  0  0  0  0  0  0  0
    0.1300    6.3700   -0.1900 H   0  0  0  0  0  0  0  0  0  0  0  0
    0.2170    7.5710   -1.4780 H   0  0  0  0  0  0  0  0  0  0  0  0
    2.1130    7.7430    0.1810 H   0  0  0  0  0  0  0  0  0  0  0  0
    2.6690    7.4880   -1.4820 H   0  0  0  0  0  0  0  0  0  0  0  0
    4.0410   -0.8780   -1.2190 H   0  0  0  0  0  0  0  0  0  0  0  0
    4.2170    0.4660   -2.3860 H   0  0  0  0  0  0  0  0  0  0  0  0
    5.5410    0.0930   -1.2890 H   0  0  0  0  0  0  0  0  0  0  0  0
    3.9150    2.5790    2.4310 H   0  0  0  0  0  0  0  0  0  0  0  0
    4.4300    4.1760    2.9840 H   0  0  0  0  0  0  0  0  0  0  0  0
    5.9330    2.7600    0.6780 H   0  0  0  0  0  0  0  0  0  0  0  0
    6.2960    4.4170    1.1610 H   0  0  0  0  0  0  0  0  0  0  0  0
    5.9010    4.0520   -0.5230 H   0  0  0  0  0  0  0  0  0  0  0  0
   -5.1970    2.6100   -7.7440 H   0  0  0  0  0  0  0  0  0  0  0  0
   -1.7350   -7.0030   -9.8420 H   0  0  0  0  0  0  0  0  0  0  0  0
   -2.8050    2.8160   -6.5460 H   0  0  0  0  0  0  0  0  0  0  0  0
   -3.9930    2.0670   -5.4190 H   0  0  0  0  0  0  0  0  0  0  0  0
   -1.7590   -4.3470   -9.8590 H   0  0  0  0  0  0  0  0  0  0  0  0
   -2.9990   -4.9460   -8.6890 H   0  0  0  0  0  0  0  0  0  0  0  0
   -1.1070    1.7530   -4.4730 H   0  0  0  0  0  0  0  0  0  0  0  0
   -1.8750    0.3980   -3.6550 H   0  0  0  0  0  0  0  0  0  0  0  0
   -5.9370   -0.5240   -8.9000 H   0  0  0  0  0  0  0  0  0  0  0  0
   -5.5210    0.8250   -9.9590 H   0  0  0  0  0  0  0  0  0  0  0  0
   -3.4370   -0.2650  -10.6350 H   0  0  0  0  0  0  0  0  0  0  0  0
   -4.7620   -1.3900  -10.8740 H   0  0  0  0  0  0  0  0  0  0  0  0
   -2.6960   -2.3830   -9.8520 H   0  0  0  0  0  0  0  0  0  0  0  0
   -4.1710   -2.6870   -8.9080 H   0  0  0  0  0  0  0  0  0  0  0  0
   -0.0400   -8.4440   -7.2690 H   0  0  0  0  0  0  0  0  0  0  0  0
    0.6230   -8.3070   -8.9040 H   0  0  0  0  0  0  0  0  0  0  0  0
    2.3400   -6.7300   -8.1500 H   0  0  0  0  0  0  0  0  0  0  0  0
    2.4350   -8.1940   -7.2050 H   0  0  0  0  0  0  0  0  0  0  0  0
    2.6680   -6.0250   -5.9180 H   0  0  0  0  0  0  0  0  0  0  0  0
    1.4890   -9.0090   -3.7050 H   0  0  0  0  0  0  0  0  0  0  0  0
    1.8450   -9.2550   -5.4010 H   0  0  0  0  0  0  0  0  0  0  0  0
    2.4030    0.4700   -4.5830 H   0  0  0  0  0  0  0  0  0  0  0  0
    1.6630   -5.1660   -3.3990 H   0  0  0  0  0  0  0  0  0  0  0  0
    2.7600   -2.8090   -2.7560 H   0  0  0  0  0  0  0  0  0  0  0  0
    4.0090   -8.0850   -5.1760 H   0  0  0  0  0  0  0  0  0  0  0  0
    3.5930   -7.5040   -3.5680 H   0  0  0  0  0  0  0  0  0  0  0  0
    3.9830  -10.4550   -4.3110 H   0  0  0  0  0  0  0  0  0  0  0  0
    5.1640   -9.4250   -3.4760 H   0  0  0  0  0  0  0  0  0  0  0  0
    3.6300   -9.8300   -2.6860 H   0  0  0  0  0  0  0  0  0  0  0  0
   -0.3450    1.0280   -2.0960 H   0  0  0  0  0  0  0  0  0  0  0  0
    0.1340   -0.6180   -1.9260 H   0  0  0  0  0  0  0  0  0  0  0  0
  1  2  2  0
  1  4  1  0
  1 89  1  0
  2  7  1  0
  2 21  1  0
  3  5  1  0
  3  6  2  0
  3 90  1  0
  4 13  2  0
  4 91  1  0
  5 11  1  0
  5 92  1  0
  5 93  1  0
  6 12  1  0
  6 20  1  0
  7 15  2  0
  7 17  1  0
  8 11  1  0
  8 14  2  0
  8 26  1  0
  9 13  1  0
  9 14  1  0
  9 94  1  0
 10 12  1  0
 10 16  2  0
 10 18  1  0
 11 12  2  0
 13 15  1  0
 14 16  1  0
 15 16  1  0
 17 18  2  0
 17 23  1  0
 18 19  1  0
 19 20  1  0
 19 95  1  0
 19 96  1  0
 20 97  1  0
 20 98  1  0
 21 22  1  0
 21 27  1  0
 21 99  1  1
 22 23  1  0
 22 24  1  0
 22100  1  1
 23 29  1  0
 23101  1  1
 24 25  2  0
 24102  1  0
 26 47  1  0
 27 28  1  0
 27103  1  0
 27104  1  0
 28 30  1  0
 28105  1  0
 28106  1  0
 29107  1  0
 29108  1  0
 29109  1  0
 30110  1  0
 30111  1  0
 30112  1  0
 31 32  2  0
 31 34  1  0
 31113  1  0
 32 35  1  0
 32 46  1  0
 33 36  2  0
 33 37  1  0
 33114  1  0
 34 38  2  0
 34 40  1  0
 35 39  2  0
 35 43  1  0
 36 38  1  0
 36 42  1  0
 37 39  1  0
 37 47  1  1
 37 48  1  0
 38 39  1  0
 40 41  1  0
 40115  1  0
 40116  1  0
 41 42  1  0
 41117  1  0
 41118  1  0
 42119  1  0
 42120  1  0
 43 44  2  0
 43 45  1  0
 45121  1  0
 45122  1  0
 45123  1  0
 46 88  1  0
 47124  1  0
 47125  1  0
 48126  1  0
 48127  1  0
 48128  1  0
 49 52  1  0
 49 53  2  0
 49129  1  0
 50 54  2  0
 50 56  1  0
 50130  1  0
 51 55  2  0
 51 57  1  0
 51 85  1  0
 52 61  1  0
 52131  1  0
 52132  1  0
 53 62  1  0
 53 73  1  0
 54 63  1  0
 54 76  1  0
 55 64  1  0
 55 84  1  0
 56 65  1  0
 56133  1  0
 56134  1  0
 57 66  2  0
 57 71  1  0
 58 63  2  0
 58 64  1  0
 58 78  1  0
 59 61  2  0
 59 67  1  0
 59 72  1  0
 60 62  2  0
 60 68  1  0
 60 75  1  0
 61 62  1  0
 63 65  1  0
 64 69  2  0
 65 70  2  0
 66 67  1  0
 66 69  1  0
 67 68  2  0
 68 70  1  0
 69 70  1  0
 71 72  1  0
 71 82  1  0
 71 88  1  1
 72135  1  0
 72136  1  0
 73 74  1  0
 73137  1  0
 73138  1  0
 74 75  1  0
 74139  1  0
 74140  1  0
 75141  1  0
 75142  1  0
 76 77  1  0
 76143  1  0
 76144  1  0
 77 78  1  0
 77145  1  0
 77146  1  0
 78 79  1  0
 78147  1  1
 79 80  2  0
 79 81  1  0
 81 86  1  0
 81148  1  0
 81149  1  0
 82 83  2  0
 82150  1  0
 84151  1  0
 85152  1  0
 86 87  1  0
 86153  1  0
 86154  1  0
 87155  1  0
 87156  1  0
 87157  1  0
 88158  1  0
 88159  1  0
M  END
