
     RDKit          3D

146169  0  0  0  0  0  0  0  0999 V2000
    4.7630   -1.4120    2.9060 C   0  0  0  0  0  0  0  0  0  0  0  0
    6.5010   -2.4080   -3.9200 C   0  0  0  0  0  0  0  0  0  0  0  0
    4.2960   -0.5190    1.9190 C   0  0  0  0  0  0  0  0  0  0  0  0
    5.6160   -1.3540   -3.5900 C   0  0  0  0  0  0  0  0  0  0  0  0
    5.5590   -2.5130    2.4850 C   0  0  0  0  0  0  0  0  0  0  0  0
    7.0700   -3.1850   -2.9040 C   0  0  0  0  0  0  0  0  0  0  0  0
    4.6600   -0.7060    0.5590 C   0  0  0  0  0  0  0  0  0  0  0  0
    5.3200   -1.0930   -2.2060 C   0  0  0  0  0  0  0  0  0  0  0  0
    6.9060   -3.6650    0.7570 C   0  0  0  0  0  0  0  0  0  0  0  0
    7.2770   -3.8160   -0.5770 C   0  0  0  0  0  0  0  0  0  0  0  0
    6.0200   -2.6460    1.1540 C   0  0  0  0  0  0  0  0  0  0  0  0
    6.7490   -2.9750   -1.5600 C   0  0  0  0  0  0  0  0  0  0  0  0
    5.5320   -1.7520    0.1750 C   0  0  0  0  0  0  0  0  0  0  0  0
    5.8730   -1.9280   -1.1980 C   0  0  0  0  0  0  0  0  0  0  0  0
    4.1450    0.1600   -0.4240 C   0  0  0  0  0  0  0  0  0  0  0  0
    4.4760   -0.0460   -1.7720 C   0  0  0  0  0  0  0  0  0  0  0  0
    4.3920   -1.1700    4.2470 C   0  0  0  0  0  0  0  0  0  0  0  0
    3.5450   -0.1180    4.6000 C   0  0  0  0  0  0  0  0  0  0  0  0
    3.0580    0.7330    3.6150 C   0  0  0  0  0  0  0  0  0  0  0  0
    3.4270    0.5460    2.2770 C   0  0  0  0  0  0  0  0  0  0  0  0
    2.9360    1.3990    1.2840 C   0  0  0  0  0  0  0  0  0  0  0  0
    3.2890    1.2070   -0.0510 C   0  0  0  0  0  0  0  0  0  0  0  0
    6.7990   -2.7030   -5.2620 C   0  0  0  0  0  0  0  0  0  0  0  0
    6.2170   -1.9850   -6.3050 C   0  0  0  0  0  0  0  0  0  0  0  0
    5.3400   -0.9540   -6.0140 C   0  0  0  0  0  0  0  0  0  0  0  0
    5.0490   -0.6410   -4.6830 C   0  0  0  0  0  0  0  0  0  0  0  0
   -1.7020   -4.7600    7.3100 C   0  0  0  0  0  0  0  0  0  0  0  0
   -0.7780   -4.8280    8.3760 C   0  0  0  0  0  0  0  0  0  0  0  0
    2.0520   -5.1690    4.1590 C   0  0  0  0  0  0  0  0  0  0  0  0
    2.9440   -4.9260    5.2180 C   0  0  0  0  0  0  0  0  0  0  0  0
   -1.2460   -4.9290    5.9830 C   0  0  0  0  0  0  0  0  0  0  0  0
    0.5890   -4.9670    8.1030 C   0  0  0  0  0  0  0  0  0  0  0  0
    0.6860   -5.3010    4.4260 C   0  0  0  0  0  0  0  0  0  0  0  0
    2.4510   -4.9690    6.5310 C   0  0  0  0  0  0  0  0  0  0  0  0
    0.1510   -5.1220    5.7230 C   0  0  0  0  0  0  0  0  0  0  0  0
    1.0690   -5.0470    6.7910 C   0  0  0  0  0  0  0  0  0  0  0  0
   -3.0740   -4.4710    7.5800 C   0  0  0  0  0  0  0  0  0  0  0  0
   -3.4960   -4.3140    8.9280 C   0  0  0  0  0  0  0  0  0  0  0  0
   -2.5700   -4.4470    9.9680 C   0  0  0  0  0  0  0  0  0  0  0  0
   -1.2260   -4.6920    9.6940 C   0  0  0  0  0  0  0  0  0  0  0  0
    2.5140   -5.1700    2.8360 C   0  0  0  0  0  0  0  0  0  0  0  0
    3.8070   -4.7520    2.5520 C   0  0  0  0  0  0  0  0  0  0  0  0
    4.6410   -4.3400    3.5950 C   0  0  0  0  0  0  0  0  0  0  0  0
    4.2640   -4.5470    4.9240 C   0  0  0  0  0  0  0  0  0  0  0  0
   -4.0040   -4.2900    6.5190 C   0  0  0  0  0  0  0  0  0  0  0  0
   -5.3350   -3.9600    6.8550 C   0  0  0  0  0  0  0  0  0  0  0  0
   -5.7460   -3.8250    8.1810 C   0  0  0  0  0  0  0  0  0  0  0  0
   -4.8310   -4.0010    9.2120 C   0  0  0  0  0  0  0  0  0  0  0  0
   -3.5450   -4.4260    5.1900 C   0  0  0  0  0  0  0  0  0  0  0  0
   -2.2030   -4.7850    4.9580 C   0  0  0  0  0  0  0  0  0  0  0  0
    5.7870   -3.5880    3.3570 O   0  0  0  0  0  0  0  0  0  0  0  0
   -4.3580   -4.0700    3.9530 C   0  0  0  0  0  0  0  0  0  0  0  0
   -2.9650    6.4820   -6.0410 C   0  0  0  0  0  0  0  0  0  0  0  0
   -3.3010    5.6670   -7.1860 C   0  0  0  0  0  0  0  0  0  0  0  0
   -2.8540    5.9030   -4.7470 C   0  0  0  0  0  0  0  0  0  0  0  0
   -3.9210    3.3110   -8.1440 C   0  0  0  0  0  0  0  0  0  0  0  0
   -3.3070    1.0260   -1.5350 C   0  0  0  0  0  0  0  0  0  0  0  0
   -4.1770    1.8590   -7.7750 C   0  0  0  0  0  0  0  0  0  0  0  0
   -3.6430    0.0710   -2.5450 C   0  0  0  0  0  0  0  0  0  0  0  0
   -4.3540    0.0240   -6.2260 N   0  0  0  0  0  0  0  0  0  0  0  0
   -4.2280   -0.3800   -4.9830 C   0  0  0  0  0  0  0  0  0  0  0  0
   -2.6980    3.5020   -1.1920 C   0  0  0  0  0  0  0  0  0  0  0  0
   -2.5980    4.5140   -2.0900 C   0  0  0  0  0  0  0  0  0  0  0  0
   -3.5440    4.2590   -7.0010 C   0  0  0  0  0  0  0  0  0  0  0  0
   -3.1190    2.3260   -1.9280 C   0  0  0  0  0  0  0  0  0  0  0  0
   -4.0810    1.3560   -6.5360 C   0  0  0  0  0  0  0  0  0  0  0  0
   -3.8020    0.4930   -3.8810 C   0  0  0  0  0  0  0  0  0  0  0  0
   -3.0890    4.5350   -4.6240 C   0  0  0  0  0  0  0  0  0  0  0  0
   -2.9960    3.9690   -3.3790 C   0  0  0  0  0  0  0  0  0  0  0  0
   -3.4440    3.6990   -5.7230 C   0  0  0  0  0  0  0  0  0  0  0  0
   -3.2590    2.6620   -3.2230 C   0  0  0  0  0  0  0  0  0  0  0  0
   -3.6980    2.3210   -5.5050 C   0  0  0  0  0  0  0  0  0  0  0  0
   -3.5970    1.8060   -4.2300 C   0  0  0  0  0  0  0  0  0  0  0  0
   -2.7590    7.8670   -6.2280 C   0  0  0  0  0  0  0  0  0  0  0  0
   -2.8570    8.4760   -7.4780 C   0  0  0  0  0  0  0  0  0  0  0  0
   -3.1700    7.7120   -8.5870 C   0  0  0  0  0  0  0  0  0  0  0  0
   -3.3870    6.3380   -8.4410 C   0  0  0  0  0  0  0  0  0  0  0  0
   -3.1530    0.7030   -0.1820 C   0  0  0  0  0  0  0  0  0  0  0  0
   -3.3670   -0.6500    0.1790 C   0  0  0  0  0  0  0  0  0  0  0  0
   -3.6310   -1.6160   -0.8380 C   0  0  0  0  0  0  0  0  0  0  0  0
   -3.7760   -1.2650   -2.1940 C   0  0  0  0  0  0  0  0  0  0  0  0
   -2.8490    1.8460    0.7990 C   0  0  0  0  0  0  0  0  0  0  0  0
   -2.3870    3.2490    0.2410 C   0  0  0  0  0  0  0  0  0  0  0  0
   -3.9280   -2.2940   -3.2960 C   0  0  0  0  0  0  0  0  0  0  0  0
   -4.6290   -1.7860   -4.5720 C   0  0  0  0  0  0  0  0  0  0  0  0
   -2.6300    6.7060   -3.4490 C   0  0  0  0  0  0  0  0  0  0  0  0
   -2.1300    5.9350   -2.1590 C   0  0  1  0  0  0  0  0  0  0  0  0
   -3.3230   -1.0920    1.6250 C   0  0  0  0  0  0  0  0  0  0  0  0
   -2.8710   -0.3430    2.4860 O   0  0  0  0  0  0  0  0  0  0  0  0
   -3.8220   -2.4880    1.9990 C   0  0  0  0  0  0  0  0  0  0  0  0
   -3.7020    5.6380   -9.5820 O   0  0  0  0  0  0  0  0  0  0  0  0
   -2.4720    6.7320   -0.9010 C   0  0  0  0  0  0  0  0  0  0  0  0
   -4.0630   -2.6200    3.5120 C   0  0  0  0  0  0  0  0  0  0  0  0
    7.7490   -3.9930   -3.1690 H   0  0  0  0  0  0  0  0  0  0  0  0
    7.3160   -4.3560    1.4920 H   0  0  0  0  0  0  0  0  0  0  0  0
    7.9630   -4.6180   -0.8410 H   0  0  0  0  0  0  0  0  0  0  0  0
    4.0450    0.6390   -2.4980 H   0  0  0  0  0  0  0  0  0  0  0  0
    4.7690   -1.8060    5.0440 H   0  0  0  0  0  0  0  0  0  0  0  0
    3.2600    0.0280    5.6380 H   0  0  0  0  0  0  0  0  0  0  0  0
    2.3880    1.5400    3.9010 H   0  0  0  0  0  0  0  0  0  0  0  0
    2.2640    2.2180    1.5370 H   0  0  0  0  0  0  0  0  0  0  0  0
    2.8880    1.8880   -0.7980 H   0  0  0  0  0  0  0  0  0  0  0  0
    7.4750   -3.5190   -5.5090 H   0  0  0  0  0  0  0  0  0  0  0  0
    6.4440   -2.2390   -7.3360 H   0  0  0  0  0  0  0  0  0  0  0  0
    4.8680   -0.3960   -6.8200 H   0  0  0  0  0  0  0  0  0  0  0  0
    4.3460    0.1700   -4.5160 H   0  0  0  0  0  0  0  0  0  0  0  0
    1.2990   -4.9520    8.9290 H   0  0  0  0  0  0  0  0  0  0  0  0
    0.0250   -5.4510    3.5800 H   0  0  0  0  0  0  0  0  0  0  0  0
    3.1420   -4.8250    7.3600 H   0  0  0  0  0  0  0  0  0  0  0  0
   -2.8770   -4.3290   11.0050 H   0  0  0  0  0  0  0  0  0  0  0  0
   -0.5260   -4.7490   10.5260 H   0  0  0  0  0  0  0  0  0  0  0  0
    1.8390   -5.3950    2.0150 H   0  0  0  0  0  0  0  0  0  0  0  0
    4.1120   -4.6590    1.5130 H   0  0  0  0  0  0  0  0  0  0  0  0
    4.9480   -4.2660    5.7210 H   0  0  0  0  0  0  0  0  0  0  0  0
   -6.0810   -3.7960    6.0830 H   0  0  0  0  0  0  0  0  0  0  0  0
   -6.7770   -3.5700    8.4080 H   0  0  0  0  0  0  0  0  0  0  0  0
   -5.1660   -3.8760   10.2390 H   0  0  0  0  0  0  0  0  0  0  0  0
   -1.8950   -4.8610    3.9190 H   0  0  0  0  0  0  0  0  0  0  0  0
   -4.1020   -4.7780    3.1540 H   0  0  0  0  0  0  0  0  0  0  0  0
   -5.4310   -4.2060    4.1150 H   0  0  0  0  0  0  0  0  0  0  0  0
   -3.1100    3.3160   -8.8800 H   0  0  0  0  0  0  0  0  0  0  0  0
   -4.8400    3.6810   -8.6150 H   0  0  0  0  0  0  0  0  0  0  0  0
   -4.4640    1.1980   -8.5870 H   0  0  0  0  0  0  0  0  0  0  0  0
   -2.5050    8.5130   -5.3900 H   0  0  0  0  0  0  0  0  0  0  0  0
   -2.6850    9.5440   -7.5790 H   0  0  0  0  0  0  0  0  0  0  0  0
   -3.2430    8.1990   -9.5550 H   0  0  0  0  0  0  0  0  0  0  0  0
   -3.7170   -2.6700   -0.5850 H   0  0  0  0  0  0  0  0  0  0  0  0
   -2.0420    1.5310    1.4670 H   0  0  0  0  0  0  0  0  0  0  0  0
   -3.7510    2.0070    1.4040 H   0  0  0  0  0  0  0  0  0  0  0  0
   -2.8200    4.0350    0.8710 H   0  0  0  0  0  0  0  0  0  0  0  0
   -1.2990    3.3130    0.3610 H   0  0  0  0  0  0  0  0  0  0  0  0
   -2.9220   -2.6360   -3.5620 H   0  0  0  0  0  0  0  0  0  0  0  0
   -4.4780   -3.1640   -2.9160 H   0  0  0  0  0  0  0  0  0  0  0  0
   -4.4300   -2.4790   -5.4000 H   0  0  0  0  0  0  0  0  0  0  0  0
   -5.7140   -1.7690   -4.4130 H   0  0  0  0  0  0  0  0  0  0  0  0
   -1.8940    7.4950   -3.6340 H   0  0  0  0  0  0  0  0  0  0  0  0
   -3.5880    7.1950   -3.2190 H   0  0  0  0  0  0  0  0  0  0  0  0
   -1.0340    5.8920   -2.2370 H   0  0  0  0  0  0  0  0  0  0  0  0
   -4.7560   -2.7040    1.4700 H   0  0  0  0  0  0  0  0  0  0  0  0
   -3.0500   -3.2020    1.6910 H   0  0  0  0  0  0  0  0  0  0  0  0
   -3.7680    6.2560  -10.3270 H   0  0  0  0  0  0  0  0  0  0  0  0
   -3.5540    6.7550   -0.7270 H   0  0  0  0  0  0  0  0  0  0  0  0
   -2.1180    7.7650   -0.9850 H   0  0  0  0  0  0  0  0  0  0  0  0
   -1.9990    6.2940   -0.0150 H   0  0  0  0  0  0  0  0  0  0  0  0
   -3.1920   -2.2240    4.0490 H   0  0  0  0  0  0  0  0  0  0  0  0
   -4.9070   -1.9820    3.8030 H   0  0  0  0  0  0  0  0  0  0  0  0
  1  3  1  0
  1  5  2  0
  1 17  1  0
  2  4  1  0
  2  6  2  0
  2 23  1  0
  3  7  2  0
  3 20  1  0
  4  8  2  0
  4 26  1  0
  5 11  1  0
  5 51  1  0
  6 12  1  0
  6 94  1  0
  7 13  1  0
  7 15  1  0
  8 14  1  0
  8 16  1  0
  9 10  1  0
  9 11  2  0
  9 95  1  0
 10 12  2  0
 10 96  1  0
 11 13  1  0
 12 14  1  0
 13 14  2  0
 15 16  2  0
 15 22  1  0
 16 97  1  0
 17 18  2  0
 17 98  1  0
 18 19  1  0
 18 99  1  0
 19 20  2  0
 19100  1  0
 20 21  1  0
 21 22  2  0
 21101  1  0
 22102  1  0
 23 24  2  0
 23103  1  0
 24 25  1  0
 24104  1  0
 25 26  2  0
 25105  1  0
 26106  1  0
 27 28  1  0
 27 31  2  0
 27 37  1  0
 28 32  2  0
 28 40  1  0
 29 30  2  0
 29 33  1  0
 29 41  1  0
 30 34  1  0
 30 44  1  0
 31 35  1  0
 31 50  1  0
 32 36  1  0
 32107  1  0
 33 35  2  0
 33108  1  0
 34 36  2  0
 34109  1  0
 35 36  1  0
 37 38  2  0
 37 45  1  0
 38 39  1  0
 38 48  1  0
 39 40  2  0
 39110  1  0
 40111  1  0
 41 42  2  0
 41112  1  0
 42 43  1  0
 42113  1  0
 43 44  2  0
 43 51  1  0
 44114  1  0
 45 46  2  0
 45 49  1  0
 46 47  1  0
 46115  1  0
 47 48  2  0
 47116  1  0
 48117  1  0
 49 50  2  0
 49 52  1  0
 50118  1  0
 52 93  1  0
 52119  1  0
 52120  1  0
 53 54  1  0
 53 55  2  0
 53 74  1  0
 54 64  2  0
 54 77  1  0
 55 68  1  0
 55 86  1  0
 56 58  1  0
 56 64  1  0
 56121  1  0
 56122  1  0
 57 59  1  0
 57 65  2  0
 57 78  1  0
 58 66  2  0
 58123  1  0
 59 67  2  0
 59 81  1  0
 60 61  2  0
 60 66  1  0
 61 67  1  0
 61 85  1  0
 62 63  2  0
 62 65  1  0
 62 83  1  0
 63 69  1  0
 63 87  1  0
 64 70  1  0
 65 71  1  0
 66 72  1  0
 67 73  1  0
 68 69  1  0
 68 70  2  0
 69 71  2  0
 70 72  1  0
 71 73  1  0
 72 73  2  0
 74 75  2  0
 74124  1  0
 75 76  1  0
 75125  1  0
 76 77  2  0
 76126  1  0
 77 91  1  0
 78 79  2  0
 78 82  1  0
 79 80  1  0
 79 88  1  0
 80 81  2  0
 80127  1  0
 81 84  1  0
 82 83  1  0
 82128  1  0
 82129  1  0
 83130  1  0
 83131  1  0
 84 85  1  0
 84132  1  0
 84133  1  0
 85134  1  0
 85135  1  0
 86 87  1  0
 86136  1  0
 86137  1  0
 87 92  1  0
 87138  1  6
 88 89  2  0
 88 90  1  0
 90 93  1  0
 90139  1  0
 90140  1  0
 91141  1  0
 92142  1  0
 92143  1  0
 92144  1  0
 93145  1  0
 93146  1  0
M  END
