
     RDKit          3D

257286  0  0  0  0  0  0  0  0999 V2000
   -7.3930    0.9530    1.9730 C   0  0  0  0  0  0  0  0  0  0  0  0
   -2.5750   -4.2600    1.7320 C   0  0  0  0  0  0  0  0  0  0  0  0
   -6.5380    0.7910    0.8510 C   0  0  0  0  0  0  0  0  0  0  0  0
   -2.6170   -3.2830    0.7500 C   0  0  0  0  0  0  0  0  0  0  0  0
   -7.2200    0.0840    3.0760 C   0  0  0  0  0  0  0  0  0  0  0  0
   -3.4140   -4.1460    2.8260 C   0  0  0  0  0  0  0  0  0  0  0  0
   -5.4670   -0.1450    0.8580 C   0  0  0  0  0  0  0  0  0  0  0  0
   -3.4450   -2.1430    0.8510 C   0  0  0  0  0  0  0  0  0  0  0  0
   -6.1760   -1.9430    4.0420 C   0  0  0  0  0  0  0  0  0  0  0  0
   -5.2630   -2.9980    3.9970 C   0  0  0  0  0  0  0  0  0  0  0  0
   -6.2620   -0.9680    3.0320 C   0  0  0  0  0  0  0  0  0  0  0  0
   -4.3520   -3.0940    2.9270 C   0  0  0  0  0  0  0  0  0  0  0  0
   -5.3650   -1.0600    1.9380 C   0  0  0  0  0  0  0  0  0  0  0  0
   -4.3880   -2.0980    1.9070 C   0  0  0  0  0  0  0  0  0  0  0  0
   -4.4770   -0.1650   -0.1710 C   0  0  0  0  0  0  0  0  0  0  0  0
   -3.3900   -1.0500   -0.0490 C   0  0  0  0  0  0  0  0  0  0  0  0
   -8.4070    1.9590    1.9470 C   0  0  0  0  0  0  0  0  0  0  0  0
   -8.6090    2.7120    0.7790 C   0  0  0  0  0  0  0  0  0  0  0  0
   -7.8070    2.5170   -0.3320 C   0  0  0  0  0  0  0  0  0  0  0  0
   -6.7830    1.5710   -0.2940 C   0  0  0  0  0  0  0  0  0  0  0  0
   -6.0560    1.2570   -1.5690 C   0  0  0  0  0  0  0  0  0  0  0  0
   -4.6100    0.7990   -1.3540 C   0  0  2  0  0  0  0  0  0  0  0  0
   -8.1320    0.2380    4.2780 C   0  0  0  0  0  0  0  0  0  0  0  0
   -8.6430    1.6620    4.4320 C   0  0  0  0  0  0  0  0  0  0  0  0
   -9.3210    2.1950    3.1580 C   0  0  2  0  0  0  0  0  0  0  0  0
  -10.6280    1.4330    2.9470 C   0  0  0  0  0  0  0  0  0  0  0  0
  -11.7190    1.8060    3.3710 O   0  0  0  0  0  0  0  0  0  0  0  0
   -2.2080   -0.8840   -0.7540 O   0  0  0  0  0  0  0  0  0  0  0  0
   -5.3550   -4.1760    5.3520 S   0  0  0  0  0  0  0  0  0  0  0  0
   -1.9270   -3.5110   -0.4080 O   0  0  0  0  0  0  0  0  0  0  0  0
   -9.6840    3.6930    3.3880 C   0  0  0  0  0  0  0  0  0  0  0  0
   -4.1610    0.2140   -2.7070 C   0  0  0  0  0  0  0  0  0  0  0  0
    1.1680   -3.8470   -1.7020 C   0  0  0  0  0  0  0  0  0  0  0  0
    1.1660   -4.1990   -3.0770 C   0  0  0  0  0  0  0  0  0  0  0  0
    0.1670    0.3400   -3.3800 C   0  0  0  0  0  0  0  0  0  0  0  0
    0.8490   -2.5170   -1.3060 C   0  0  0  0  0  0  0  0  0  0  0  0
    0.8190   -3.2450   -4.0460 C   0  0  0  0  0  0  0  0  0  0  0  0
    0.2310   -0.1710   -2.1200 C   0  0  0  0  0  0  0  0  0  0  0  0
    0.1350   -0.7670   -4.4500 C   0  0  1  0  0  0  0  0  0  0  0  0
    0.5290   -1.5990   -2.2880 C   0  0  0  0  0  0  0  0  0  0  0  0
    0.5060   -1.9620   -3.6290 C   0  0  0  0  0  0  0  0  0  0  0  0
    1.5210   -4.8170   -0.7270 C   0  0  0  0  0  0  0  0  0  0  0  0
    1.8810   -6.1400   -1.1000 C   0  0  0  0  0  0  0  0  0  0  0  0
    1.8650   -6.4440   -2.4800 C   0  0  0  0  0  0  0  0  0  0  0  0
    1.5180   -5.4960   -3.4490 C   0  0  0  0  0  0  0  0  0  0  0  0
    1.5180   -4.4370    0.6320 C   0  0  0  0  0  0  0  0  0  0  0  0
    1.8680   -5.3620    1.6190 C   0  0  0  0  0  0  0  0  0  0  0  0
    2.2270   -6.6570    1.2740 C   0  0  0  0  0  0  0  0  0  0  0  0
    2.2320   -7.0610   -0.0680 C   0  0  0  0  0  0  0  0  0  0  0  0
    1.1890   -3.1210    0.9930 C   0  0  0  0  0  0  0  0  0  0  0  0
    0.8760   -2.1340    0.0380 C   0  0  0  0  0  0  0  0  0  0  0  0
    0.7590   -0.6440    0.4370 C   0  0  1  0  0  0  0  0  0  0  0  0
    0.0510    0.3370   -0.6790 C   0  0  1  0  0  0  0  0  0  0  0  0
    2.6310   -8.4780   -0.3600 C   0  0  0  0  0  0  0  0  0  0  0  0
    3.2990   -8.7590   -1.3480 O   0  0  0  0  0  0  0  0  0  0  0  0
    2.1900   -9.5700    0.6010 C   0  0  0  0  0  0  0  0  0  0  0  0
    0.0600   -0.4960    1.8170 C   0  0  0  0  0  0  0  0  0  0  0  0
    3.3830  -10.1610    1.3320 C   0  0  0  0  0  0  0  0  0  0  0  0
    0.4790    1.8540   -0.4320 C   0  0  0  0  0  0  0  0  0  0  0  0
   -1.5350    0.3610   -0.4730 C   0  0  0  0  0  0  0  0  0  0  0  0
    2.2400   -0.2630    0.6670 C   0  0  0  0  0  0  0  0  0  0  0  0
    0.0720    1.7650   -3.8750 C   0  0  0  0  0  0  0  0  0  0  0  0
   -1.2360   -0.9530   -5.0990 C   0  0  0  0  0  0  0  0  0  0  0  0
    4.8370   -4.4380   -7.7430 C   0  0  0  0  0  0  0  0  0  0  0  0
    4.9250   -3.8010   -9.0000 C   0  0  0  0  0  0  0  0  0  0  0  0
    3.5010   -0.0440   -5.7910 C   0  0  0  0  0  0  0  0  0  0  0  0
    3.4080    0.4490   -7.1130 C   0  0  0  0  0  0  0  0  0  0  0  0
    4.6160   -3.5940   -6.6220 C   0  0  0  0  0  0  0  0  0  0  0  0
    4.6820   -2.4230   -9.1090 C   0  0  0  0  0  0  0  0  0  0  0  0
    4.0630   -1.3440   -5.5980 C   0  0  0  0  0  0  0  0  0  0  0  0
    3.9080   -0.3160   -8.1740 C   0  0  0  0  0  0  0  0  0  0  0  0
    4.3690   -2.1920   -6.7040 C   0  0  0  0  0  0  0  0  0  0  0  0
    4.3430   -1.6370   -7.9960 C   0  0  0  0  0  0  0  0  0  0  0  0
    4.9460   -5.8720   -7.6710 C   0  0  0  0  0  0  0  0  0  0  0  0
    5.2000   -6.6040   -8.8540 C   0  0  0  0  0  0  0  0  0  0  0  0
    5.3530   -5.9380  -10.0780 C   0  0  0  0  0  0  0  0  0  0  0  0
    5.2070   -4.5530  -10.1460 C   0  0  0  0  0  0  0  0  0  0  0  0
    2.9430    0.7580   -4.7680 C   0  0  0  0  0  0  0  0  0  0  0  0
    2.1190    1.8450   -5.0780 C   0  0  0  0  0  0  0  0  0  0  0  0
    2.0830    2.3500   -6.3660 C   0  0  0  0  0  0  0  0  0  0  0  0
    2.7570    1.6680   -7.3740 C   0  0  0  0  0  0  0  0  0  0  0  0
    4.7770   -6.6270   -6.4920 C   0  0  0  0  0  0  0  0  0  0  0  0
    4.8450   -8.0070   -6.5540 C   0  0  0  0  0  0  0  0  0  0  0  0
    5.0850   -8.7270   -7.6510 N   0  0  0  0  0  0  0  0  0  0  0  0
    5.2700   -8.0030   -8.7800 C   0  0  0  0  0  0  0  0  0  0  0  0
    4.2580   -1.8480   -4.2110 C   0  0  0  0  0  0  0  0  0  0  0  0
    5.1750   -2.6090   -3.9130 O   0  0  0  0  0  0  0  0  0  0  0  0
    4.6070   -8.7370   -5.4340 O   0  0  0  0  0  0  0  0  0  0  0  0
    1.3510    2.4140   -4.1060 O   0  0  0  0  0  0  0  0  0  0  0  0
   -9.3970    6.5200    2.8210 C   0  0  0  0  0  0  0  0  0  0  0  0
   -9.2200    7.6610    2.0630 C   0  0  0  0  0  0  0  0  0  0  0  0
   -4.2030   12.0000   -2.5670 C   0  0  0  0  0  0  0  0  0  0  0  0
   -8.3560    5.6050    2.9090 C   0  0  0  0  0  0  0  0  0  0  0  0
   -2.9960   11.2890   -2.7080 C   0  0  0  0  0  0  0  0  0  0  0  0
   -5.2440   11.5530   -1.7260 C   0  0  0  0  0  0  0  0  0  0  0  0
   -7.9900    7.8920    1.4320 C   0  0  0  0  0  0  0  0  0  0  0  0
   -6.0660    4.9040    2.4250 C   0  0  0  0  0  0  0  0  0  0  0  0
   -1.7140    9.1150   -1.9130 C   0  0  0  0  0  0  0  0  0  0  0  0
   -4.7850    5.0540    1.8670 C   0  0  0  0  0  0  0  0  0  0  0  0
   -1.7770    7.9170   -1.1110 C   0  0  0  0  0  0  0  0  0  0  0  0
   -3.2280    6.4150    0.4860 C   0  0  0  0  0  0  0  0  0  0  0  0
   -5.7860    9.5920   -0.1700 N   0  0  0  0  0  0  0  0  0  0  0  0
   -7.0950    5.8510    2.3010 C   0  0  0  0  0  0  0  0  0  0  0  0
   -2.7950   10.0720   -2.0040 C   0  0  0  0  0  0  0  0  0  0  0  0
   -5.0350   10.3440   -1.0550 C   0  0  0  0  0  0  0  0  0  0  0  0
   -4.4950    6.2180    1.1030 C   0  0  0  0  0  0  0  0  0  0  0  0
   -2.9300    7.5280   -0.3300 C   0  0  0  0  0  0  0  0  0  0  0  0
   -6.8650    7.0260    1.5470 C   0  0  0  0  0  0  0  0  0  0  0  0
   -5.1740    8.3860    0.1720 C   0  0  0  0  0  0  0  0  0  0  0  0
   -3.8580    9.6500   -1.2080 C   0  0  0  0  0  0  0  0  0  0  0  0
   -5.5440    7.2210    0.9510 C   0  0  0  0  0  0  0  0  0  0  0  0
   -3.9340    8.4780   -0.4400 C   0  0  0  0  0  0  0  0  0  0  0  0
   -3.8000    3.9160    2.1130 C   0  0  0  0  0  0  0  0  0  0  0  0
   -2.7710    3.7960    1.4480 O   0  0  0  0  0  0  0  0  0  0  0  0
   -4.1190    2.8820    3.1960 C   0  0  0  0  0  0  0  0  0  0  0  0
   -8.4980    4.4590    3.6600 O   0  0  0  0  0  0  0  0  0  0  0  0
   -2.9080    2.0650    3.6650 C   0  0  0  0  0  0  0  0  0  0  0  0
   -2.2870    2.5920    4.9650 C   0  0  0  0  0  0  0  0  0  0  0  0
   -1.8120    4.0350    4.8830 C   0  0  0  0  0  0  0  0  0  0  0  0
    6.0210    0.4390    1.3830 C   0  0  0  0  0  0  0  0  0  0  0  0
    5.3730    1.2590    2.3470 C   0  0  0  0  0  0  0  0  0  0  0  0
    7.1860   -2.0130    5.2030 C   0  0  0  0  0  0  0  0  0  0  0  0
    6.7940   -0.7110    1.7770 C   0  0  0  0  0  0  0  0  0  0  0  0
    5.5250    0.9090    3.7010 C   0  0  0  0  0  0  0  0  0  0  0  0
    7.4500   -2.1760    3.8930 C   0  0  0  0  0  0  0  0  0  0  0  0
    6.3670   -0.7750    5.4870 C   0  0  1  0  0  0  0  0  0  0  0  0
    6.8510   -1.0640    3.1350 C   0  0  0  0  0  0  0  0  0  0  0  0
    6.2250   -0.2320    4.0780 C   0  0  0  0  0  0  0  0  0  0  0  0
    5.9120    0.7930    0.0100 C   0  0  0  0  0  0  0  0  0  0  0  0
    5.1070    1.8870   -0.4070 C   0  0  0  0  0  0  0  0  0  0  0  0
    4.2190    2.4950    0.5630 C   0  0  0  0  0  0  0  0  0  0  0  0
    4.5230    2.3360    1.9310 C   0  0  0  0  0  0  0  0  0  0  0  0
    6.6230    0.0320   -0.9550 C   0  0  0  0  0  0  0  0  0  0  0  0
    6.6010    0.3780   -2.3040 C   0  0  0  0  0  0  0  0  0  0  0  0
    5.9680    1.5420   -2.7020 C   0  0  0  0  0  0  0  0  0  0  0  0
    5.2770    2.3230   -1.7690 C   0  0  0  0  0  0  0  0  0  0  0  0
    7.3740   -1.0730   -0.5670 C   0  0  0  0  0  0  0  0  0  0  0  0
    7.4620   -1.4270    0.7740 C   0  0  0  0  0  0  0  0  0  0  0  0
    2.9700    3.1690    0.2600 C   0  0  0  0  0  0  0  0  0  0  0  0
    2.3780    4.0750    1.1630 C   0  0  0  0  0  0  0  0  0  0  0  0
    2.9000    4.1230    2.4510 C   0  0  0  0  0  0  0  0  0  0  0  0
    3.8960    3.2240    2.8370 C   0  0  0  0  0  0  0  0  0  0  0  0
    8.1840   -3.3930    3.4990 C   0  0  0  0  0  0  0  0  0  0  0  0
    8.1180   -3.9420    2.4100 O   0  0  0  0  0  0  0  0  0  0  0  0
    1.2530    5.0100    0.7910 C   0  0  0  0  0  0  0  0  0  0  0  0
    0.7690    5.0420   -0.3380 O   0  0  0  0  0  0  0  0  0  0  0  0
    0.7350    5.9710    1.8360 C   0  0  0  0  0  0  0  0  0  0  0  0
    2.0550    2.4730   -1.1610 S   0  0  0  0  0  0  0  0  0  0  0  0
    4.9910   -1.1220    6.1190 C   0  0  0  0  0  0  0  0  0  0  0  0
    4.0590   -1.9950    5.2720 C   0  0  0  0  0  0  0  0  0  0  0  0
    7.1670    0.2230    6.3660 C   0  0  0  0  0  0  0  0  0  0  0  0
    7.4650   -0.2510    7.7860 C   0  0  0  0  0  0  0  0  0  0  0  0
    4.8470    3.6870   -2.2720 C   0  0  0  0  0  0  0  0  0  0  0  0
   -1.9230   -5.1230    1.6370 H   0  0  0  0  0  0  0  0  0  0  0  0
   -3.3490   -4.9190    3.5870 H   0  0  0  0  0  0  0  0  0  0  0  0
   -6.8630   -1.9210    4.8840 H   0  0  0  0  0  0  0  0  0  0  0  0
   -9.3970    3.4560    0.7000 H   0  0  0  0  0  0  0  0  0  0  0  0
   -8.0000    3.0880   -1.2410 H   0  0  0  0  0  0  0  0  0  0  0  0
   -6.6360    0.4700   -2.0760 H   0  0  0  0  0  0  0  0  0  0  0  0
   -6.0550    2.1310   -2.2310 H   0  0  0  0  0  0  0  0  0  0  0  0
   -4.0110    1.6860   -1.1180 H   0  0  0  0  0  0  0  0  0  0  0  0
   -7.5890    0.0120    5.2020 H   0  0  0  0  0  0  0  0  0  0  0  0
   -8.9620   -0.4730    4.1910 H   0  0  0  0  0  0  0  0  0  0  0  0
   -9.3380    1.6970    5.2820 H   0  0  0  0  0  0  0  0  0  0  0  0
   -7.7900    2.3010    4.7040 H   0  0  0  0  0  0  0  0  0  0  0  0
  -10.5410    0.4600    2.4300 H   0  0  0  0  0  0  0  0  0  0  0  0
   -5.6580   -5.2360    4.5860 H   0  0  0  0  0  0  0  0  0  0  0  0
   -1.2040   -4.1380   -0.2450 H   0  0  0  0  0  0  0  0  0  0  0  0
  -10.2640    4.0840    2.5440 H   0  0  0  0  0  0  0  0  0  0  0  0
  -10.3290    3.7930    4.2710 H   0  0  0  0  0  0  0  0  0  0  0  0
   -4.4020    0.9030   -3.5230 H   0  0  0  0  0  0  0  0  0  0  0  0
   -4.6580   -0.7420   -2.9100 H   0  0  0  0  0  0  0  0  0  0  0  0
   -3.0860    0.0470   -2.7600 H   0  0  0  0  0  0  0  0  0  0  0  0
    0.8090   -3.4940   -5.1030 H   0  0  0  0  0  0  0  0  0  0  0  0
    0.8750   -0.6160   -5.2290 H   0  0  0  0  0  0  0  0  0  0  0  0
    2.1440   -7.4330   -2.8410 H   0  0  0  0  0  0  0  0  0  0  0  0
    1.5450   -5.7890   -4.4960 H   0  0  0  0  0  0  0  0  0  0  0  0
    1.8860   -5.0710    2.6680 H   0  0  0  0  0  0  0  0  0  0  0  0
    2.5290   -7.3330    2.0690 H   0  0  0  0  0  0  0  0  0  0  0  0
    1.2470   -2.8530    2.0430 H   0  0  0  0  0  0  0  0  0  0  0  0
    1.4460   -9.2020    1.3120 H   0  0  0  0  0  0  0  0  0  0  0  0
    1.6860  -10.3440    0.0110 H   0  0  0  0  0  0  0  0  0  0  0  0
   -0.1170    0.5520    2.0770 H   0  0  0  0  0  0  0  0  0  0  0  0
   -0.8970   -1.0230    1.8460 H   0  0  0  0  0  0  0  0  0  0  0  0
    0.6670   -0.8980    2.6350 H   0  0  0  0  0  0  0  0  0  0  0  0
    3.9050   -9.3990    1.9180 H   0  0  0  0  0  0  0  0  0  0  0  0
    4.1060  -10.5850    0.6260 H   0  0  0  0  0  0  0  0  0  0  0  0
    3.0620  -10.9580    2.0100 H   0  0  0  0  0  0  0  0  0  0  0  0
   -0.2820    2.5180   -0.8520 H   0  0  0  0  0  0  0  0  0  0  0  0
    0.4770    2.0650    0.6400 H   0  0  0  0  0  0  0  0  0  0  0  0
   -1.9350    1.1060   -1.1720 H   0  0  0  0  0  0  0  0  0  0  0  0
   -1.7860    0.7230    0.5330 H   0  0  0  0  0  0  0  0  0  0  0  0
    2.7850   -1.0000    1.2730 H   0  0  0  0  0  0  0  0  0  0  0  0
    2.7890   -0.1870   -0.2790 H   0  0  0  0  0  0  0  0  0  0  0  0
    2.3060    0.6690    1.2290 H   0  0  0  0  0  0  0  0  0  0  0  0
   -0.5320    1.8330   -4.7870 H   0  0  0  0  0  0  0  0  0  0  0  0
   -0.4580    2.3760   -3.1370 H   0  0  0  0  0  0  0  0  0  0  0  0
   -2.0140   -1.1780   -4.3610 H   0  0  0  0  0  0  0  0  0  0  0  0
   -1.2170   -1.7880   -5.8090 H   0  0  0  0  0  0  0  0  0  0  0  0
   -1.5410   -0.0570   -5.6490 H   0  0  0  0  0  0  0  0  0  0  0  0
    4.5880   -4.0550   -5.6370 H   0  0  0  0  0  0  0  0  0  0  0  0
    4.7020   -1.9590  -10.0960 H   0  0  0  0  0  0  0  0  0  0  0  0
    3.8640    0.0900   -9.1860 H   0  0  0  0  0  0  0  0  0  0  0  0
    5.5570   -6.4890  -10.9910 H   0  0  0  0  0  0  0  0  0  0  0  0
    5.2950   -4.0700  -11.1180 H   0  0  0  0  0  0  0  0  0  0  0  0
    3.0030    0.4760   -3.7220 H   0  0  0  0  0  0  0  0  0  0  0  0
    1.5060    3.2420   -6.5890 H   0  0  0  0  0  0  0  0  0  0  0  0
    2.7070    2.0620   -8.3900 H   0  0  0  0  0  0  0  0  0  0  0  0
    4.5700   -6.1710   -5.5300 H   0  0  0  0  0  0  0  0  0  0  0  0
    5.4580   -8.6010   -9.6650 H   0  0  0  0  0  0  0  0  0  0  0  0
    3.5630   -1.5000   -3.4350 H   0  0  0  0  0  0  0  0  0  0  0  0
    4.8180   -9.6410   -5.7400 H   0  0  0  0  0  0  0  0  0  0  0  0
  -10.3390    6.3580    3.3350 H   0  0  0  0  0  0  0  0  0  0  0  0
  -10.0270    8.3810    1.9640 H   0  0  0  0  0  0  0  0  0  0  0  0
   -4.3350   12.9260   -3.1230 H   0  0  0  0  0  0  0  0  0  0  0  0
   -2.2140   11.6650   -3.3630 H   0  0  0  0  0  0  0  0  0  0  0  0
   -6.1600   12.1210   -1.6200 H   0  0  0  0  0  0  0  0  0  0  0  0
   -7.9600    8.7840    0.8260 H   0  0  0  0  0  0  0  0  0  0  0  0
   -6.3040    3.9970    2.9720 H   0  0  0  0  0  0  0  0  0  0  0  0
   -0.8060    9.3050   -2.4840 H   0  0  0  0  0  0  0  0  0  0  0  0
   -0.9110    7.2510   -1.1130 H   0  0  0  0  0  0  0  0  0  0  0  0
   -2.4180    5.7010    0.5770 H   0  0  0  0  0  0  0  0  0  0  0  0
   -6.6580    9.9320    0.2030 H   0  0  0  0  0  0  0  0  0  0  0  0
   -4.5900    3.3620    4.0620 H   0  0  0  0  0  0  0  0  0  0  0  0
   -4.8370    2.1920    2.7440 H   0  0  0  0  0  0  0  0  0  0  0  0
   -3.2460    1.0390    3.8610 H   0  0  0  0  0  0  0  0  0  0  0  0
   -2.1380    1.9920    2.8920 H   0  0  0  0  0  0  0  0  0  0  0  0
   -1.4350    1.9510    5.2220 H   0  0  0  0  0  0  0  0  0  0  0  0
   -3.0130    2.4980    5.7810 H   0  0  0  0  0  0  0  0  0  0  0  0
   -1.2970    4.3100    5.8120 H   0  0  0  0  0  0  0  0  0  0  0  0
   -1.1120    4.1690    4.0520 H   0  0  0  0  0  0  0  0  0  0  0  0
   -2.6510    4.7290    4.7490 H   0  0  0  0  0  0  0  0  0  0  0  0
    7.4780   -2.7080    5.9790 H   0  0  0  0  0  0  0  0  0  0  0  0
    5.0420    1.4760    4.4910 H   0  0  0  0  0  0  0  0  0  0  0  0
    7.1300   -0.2170   -3.0440 H   0  0  0  0  0  0  0  0  0  0  0  0
    6.0340    1.8570   -3.7410 H   0  0  0  0  0  0  0  0  0  0  0  0
    7.9050   -1.6730   -1.3010 H   0  0  0  0  0  0  0  0  0  0  0  0
    8.0860   -2.2860    0.9990 H   0  0  0  0  0  0  0  0  0  0  0  0
    2.5050    4.7870    3.2150 H   0  0  0  0  0  0  0  0  0  0  0  0
    4.1770    3.2410    3.8860 H   0  0  0  0  0  0  0  0  0  0  0  0
    8.7930   -3.8380    4.3050 H   0  0  0  0  0  0  0  0  0  0  0  0
    1.5260    6.6590    2.1420 H   0  0  0  0  0  0  0  0  0  0  0  0
   -0.0770    6.5690    1.4130 H   0  0  0  0  0  0  0  0  0  0  0  0
    0.3330    5.4260    2.6930 H   0  0  0  0  0  0  0  0  0  0  0  0
    5.1470   -1.6450    7.0720 H   0  0  0  0  0  0  0  0  0  0  0  0
    4.4570   -0.1940    6.3580 H   0  0  0  0  0  0  0  0  0  0  0  0
    3.1410   -2.2030    5.8330 H   0  0  0  0  0  0  0  0  0  0  0  0
    3.7660   -1.4960    4.3430 H   0  0  0  0  0  0  0  0  0  0  0  0
    4.5200   -2.9560    5.0230 H   0  0  0  0  0  0  0  0  0  0  0  0
    6.6220    1.1740    6.4350 H   0  0  0  0  0  0  0  0  0  0  0  0
    8.1240    0.4630    5.8830 H   0  0  0  0  0  0  0  0  0  0  0  0
    8.0170   -1.1970    7.7910 H   0  0  0  0  0  0  0  0  0  0  0  0
    6.5470   -0.3770    8.3690 H   0  0  0  0  0  0  0  0  0  0  0  0
    8.0770    0.4950    8.3020 H   0  0  0  0  0  0  0  0  0  0  0  0
    4.0230    3.6090   -2.9870 H   0  0  0  0  0  0  0  0  0  0  0  0
    5.6920    4.1640   -2.7870 H   0  0  0  0  0  0  0  0  0  0  0  0
    4.5770    4.3720   -1.4660 H   0  0  0  0  0  0  0  0  0  0  0  0
  1  3  2  0
  1  5  1  0
  1 17  1  0
  2  4  2  0
  2  6  1  0
  2154  1  0
  3  7  1  0
  3 20  1  0
  4  8  1  0
  4 30  1  0
  5 11  2  0
  5 23  1  0
  6 12  2  0
  6155  1  0
  7 13  2  0
  7 15  1  0
  8 14  2  0
  8 16  1  0
  9 10  2  0
  9 11  1  0
  9156  1  0
 10 12  1  0
 10 29  1  0
 11 13  1  0
 12 14  1  0
 13 14  1  0
 15 16  2  0
 15 22  1  0
 16 28  1  0
 17 18  2  0
 17 25  1  0
 18 19  1  0
 18157  1  0
 19 20  2  0
 19158  1  0
 20 21  1  0
 21 22  1  0
 21159  1  0
 21160  1  0
 22 32  1  0
 22161  1  1
 23 24  1  0
 23162  1  0
 23163  1  0
 24 25  1  0
 24164  1  0
 24165  1  0
 25 26  1  0
 25 31  1  1
 26 27  2  0
 26166  1  0
 28 60  1  0
 29167  1  0
 30168  1  0
 31116  1  0
 31169  1  0
 31170  1  0
 32171  1  0
 32172  1  0
 32173  1  0
 33 34  1  0
 33 36  2  0
 33 42  1  0
 34 37  2  0
 34 45  1  0
 35 38  2  0
 35 39  1  0
 35 62  1  0
 36 40  1  0
 36 51  1  0
 37 41  1  0
 37174  1  0
 38 40  1  0
 38 53  1  0
 39 41  1  0
 39 63  1  0
 39175  1  6
 40 41  2  0
 42 43  2  0
 42 46  1  0
 43 44  1  0
 43 49  1  0
 44 45  2  0
 44176  1  0
 45177  1  0
 46 47  2  0
 46 50  1  0
 47 48  1  0
 47178  1  0
 48 49  2  0
 48179  1  0
 49 54  1  0
 50 51  2  0
 50180  1  0
 51 52  1  0
 52 53  1  0
 52 57  1  1
 52 61  1  0
 53 59  1  6
 53 60  1  0
 54 55  2  0
 54 56  1  0
 56 58  1  0
 56181  1  0
 56182  1  0
 57183  1  0
 57184  1  0
 57185  1  0
 58186  1  0
 58187  1  0
 58188  1  0
 59148  1  0
 59189  1  0
 59190  1  0
 60191  1  0
 60192  1  0
 61193  1  0
 61194  1  0
 61195  1  0
 62 89  1  0
 62196  1  0
 62197  1  0
 63198  1  0
 63199  1  0
 63200  1  0
 64 65  1  0
 64 68  2  0
 64 74  1  0
 65 69  2  0
 65 77  1  0
 66 67  2  0
 66 70  1  0
 66 78  1  0
 67 71  1  0
 67 81  1  0
 68 72  1  0
 68201  1  0
 69 73  1  0
 69202  1  0
 70 72  2  0
 70 86  1  0
 71 73  2  0
 71203  1  0
 72 73  1  0
 74 75  2  0
 74 82  1  0
 75 76  1  0
 75 85  1  0
 76 77  2  0
 76204  1  0
 77205  1  0
 78 79  2  0
 78206  1  0
 79 80  1  0
 79 89  1  0
 80 81  2  0
 80207  1  0
 81208  1  0
 82 83  2  0
 82209  1  0
 83 84  1  0
 83 88  1  0
 84 85  2  0
 85210  1  0
 86 87  2  0
 86211  1  0
 88212  1  0
 90 91  2  0
 90 93  1  0
 90213  1  0
 91 96  1  0
 91214  1  0
 92 94  2  0
 92 95  1  0
 92215  1  0
 93103  2  0
 93116  1  0
 94104  1  0
 94216  1  0
 95105  2  0
 95217  1  0
 96108  2  0
 96218  1  0
 97 99  2  0
 97103  1  0
 97219  1  0
 98100  2  0
 98104  1  0
 98220  1  0
 99106  1  0
 99113  1  0
100107  1  0
100221  1  0
101106  1  0
101107  2  0
101222  1  0
102105  1  0
102109  1  0
102223  1  0
103108  1  0
104110  2  0
105110  1  0
106111  2  0
107112  1  0
108111  1  0
109111  1  0
109112  2  0
110112  1  0
113114  2  0
113115  1  0
115117  1  0
115224  1  0
115225  1  0
117118  1  0
117226  1  0
117227  1  0
118119  1  0
118228  1  0
118229  1  0
119230  1  0
119231  1  0
119232  1  0
120121  2  0
120123  1  0
120129  1  0
121124  1  0
121132  1  0
122125  2  0
122126  1  0
122233  1  0
123127  2  0
123138  1  0
124128  2  0
124234  1  0
125127  1  0
125143  1  0
126128  1  0
126149  1  1
126151  1  0
127128  1  0
129130  2  0
129133  1  0
130131  1  0
130136  1  0
131132  2  0
131139  1  0
132142  1  0
133134  2  0
133137  1  0
134135  1  0
134235  1  0
135136  2  0
135236  1  0
136153  1  0
137138  2  0
137237  1  0
138238  1  0
139140  2  0
139148  1  0
140141  1  0
140145  1  0
141142  2  0
141239  1  0
142240  1  0
143144  2  0
143241  1  0
145146  2  0
145147  1  0
147242  1  0
147243  1  0
147244  1  0
149150  1  0
149245  1  0
149246  1  0
150247  1  0
150248  1  0
150249  1  0
151152  1  0
151250  1  0
151251  1  0
152252  1  0
152253  1  0
152254  1  0
153255  1  0
153256  1  0
153257  1  0
M  END
