
     RDKit          3D

259291  0  0  0  0  0  0  0  0999 V2000
    1.4740   -1.8520   -2.4970 C   0  0  0  0  0  0  0  0  0  0  0  0
    1.3600   -3.0180   -3.2790 C   0  0  0  0  0  0  0  0  0  0  0  0
    6.0750   -3.4450   -1.4230 C   0  0  0  0  0  0  0  0  0  0  0  0
    5.7990   -4.6530   -2.0770 C   0  0  0  0  0  0  0  0  0  0  0  0
    2.6380   -1.6750   -1.6670 C   0  0  0  0  0  0  0  0  0  0  0  0
    2.3400   -4.0000   -3.2290 C   0  0  0  0  0  0  0  0  0  0  0  0
    5.0540   -2.4790   -1.2950 C   0  0  0  0  0  0  0  0  0  0  0  0
    4.5160   -4.8040   -2.6300 C   0  0  0  0  0  0  0  0  0  0  0  0
    3.7270   -2.6310   -1.7790 C   0  0  0  0  0  0  0  0  0  0  0  0
    3.5220   -3.8130   -2.5200 C   0  0  0  0  0  0  0  0  0  0  0  0
    0.4730   -0.8560   -2.6760 C   0  0  0  0  0  0  0  0  0  0  0  0
   -0.5490   -0.9840   -3.6490 C   0  0  0  0  0  0  0  0  0  0  0  0
   -0.6840   -2.2120   -4.3150 C   0  0  0  0  0  0  0  0  0  0  0  0
    0.2860   -3.1970   -4.1510 C   0  0  0  0  0  0  0  0  0  0  0  0
    7.3700   -3.1990   -0.9310 C   0  0  0  0  0  0  0  0  0  0  0  0
    8.3910   -4.1370   -1.0880 C   0  0  0  0  0  0  0  0  0  0  0  0
    8.1250   -5.3460   -1.7180 C   0  0  0  0  0  0  0  0  0  0  0  0
    6.8420   -5.6040   -2.1910 C   0  0  0  0  0  0  0  0  0  0  0  0
    0.4980    0.3030   -1.8970 C   0  0  0  0  0  0  0  0  0  0  0  0
   -0.3130    1.3750   -2.2500 C   0  0  0  0  0  0  0  0  0  0  0  0
   -1.2060    1.3310   -3.2580 N   0  0  0  0  0  0  0  0  0  0  0  0
   -1.3280    0.1540   -3.9070 C   0  0  0  0  0  0  0  0  0  0  0  0
    2.7150   -0.3560   -0.8150 C   0  0  2  0  0  0  0  0  0  0  0  0
    1.2720    0.2770   -0.5960 C   0  0  2  0  0  0  0  0  0  0  0  0
   -1.8160   -2.5540   -5.2150 C   0  0  0  0  0  0  0  0  0  0  0  0
   -1.5730   -2.9890   -6.3400 O   0  0  0  0  0  0  0  0  0  0  0  0
   -3.2380   -2.4590   -4.6870 C   0  0  0  0  0  0  0  0  0  0  0  0
    6.6540   -6.8300   -2.7720 O   0  0  0  0  0  0  0  0  0  0  0  0
    3.5500    0.6440   -1.6580 C   0  0  0  0  0  0  0  0  0  0  0  0
    0.3880   -0.4730    0.4590 C   0  0  0  0  0  0  0  0  0  0  0  0
    3.4040   -0.5360    0.5910 C   0  0  0  0  0  0  0  0  0  0  0  0
    3.3030    0.6360    1.5660 C   0  0  0  0  0  0  0  0  0  0  0  0
   -1.3980    1.0610    1.0590 C   0  0  0  0  0  0  0  0  0  0  0  0
   -2.2700    0.6220    0.0440 C   0  0  0  0  0  0  0  0  0  0  0  0
   -4.4870    4.4750    1.4000 C   0  0  0  0  0  0  0  0  0  0  0  0
   -1.7280    2.2050    1.8050 C   0  0  0  0  0  0  0  0  0  0  0  0
   -3.3910    1.3730   -0.3290 C   0  0  0  0  0  0  0  0  0  0  0  0
   -3.4510    4.0250    2.1350 C   0  0  0  0  0  0  0  0  0  0  0  0
   -4.7450    3.5900    0.1480 C   0  0  2  0  0  0  0  0  0  0  0  0
   -2.8840    2.8840    1.4490 C   0  0  0  0  0  0  0  0  0  0  0  0
   -3.6680    2.5370    0.3590 C   0  0  0  0  0  0  0  0  0  0  0  0
   -0.9350    2.7150    2.9820 C   0  0  0  0  0  0  0  0  0  0  0  0
   -1.3050    4.1680    3.4600 C   0  0  2  0  0  0  0  0  0  0  0  0
   -2.8400    4.4000    3.4410 C   0  0  0  0  0  0  0  0  0  0  0  0
   -0.5700    5.2390    2.6230 C   0  0  0  0  0  0  0  0  0  0  0  0
    0.4090    4.9660    1.9250 O   0  0  0  0  0  0  0  0  0  0  0  0
   -1.0240    6.6780    2.7420 C   0  0  0  0  0  0  0  0  0  0  0  0
   -0.2330    0.4310    1.3930 O   0  0  0  0  0  0  0  0  0  0  0  0
   -4.5290    4.3890   -1.1720 C   0  0  0  0  0  0  0  0  0  0  0  0
   -0.7880    4.3330    4.9040 C   0  0  0  0  0  0  0  0  0  0  0  0
   -5.3640    5.6410    1.7070 C   0  0  0  0  0  0  0  0  0  0  0  0
   -6.1360    2.9520    0.2120 C   0  0  0  0  0  0  0  0  0  0  0  0
   -3.4890   -3.1000    0.4870 C   0  0  0  0  0  0  0  0  0  0  0  0
    2.7860   -6.5120    0.2380 C   0  0  0  0  0  0  0  0  0  0  0  0
   -3.0940   -3.7950   -0.7010 C   0  0  0  0  0  0  0  0  0  0  0  0
    1.8040   -6.7080   -0.7610 C   0  0  0  0  0  0  0  0  0  0  0  0
   -2.5800   -3.0270    1.5730 C   0  0  0  0  0  0  0  0  0  0  0  0
    2.5660   -5.5180    1.2290 C   0  0  0  0  0  0  0  0  0  0  0  0
   -1.8490   -4.4900   -0.7290 C   0  0  0  0  0  0  0  0  0  0  0  0
    0.5980   -5.9520   -0.7550 C   0  0  0  0  0  0  0  0  0  0  0  0
   -0.2900   -3.4250    2.4590 C   0  0  0  0  0  0  0  0  0  0  0  0
    0.9640   -4.0210    2.3710 C   0  0  0  0  0  0  0  0  0  0  0  0
   -1.2750   -3.5940    1.4700 C   0  0  0  0  0  0  0  0  0  0  0  0
    1.3060   -4.8600    1.3040 C   0  0  0  0  0  0  0  0  0  0  0  0
   -0.9330   -4.3760    0.3460 C   0  0  0  0  0  0  0  0  0  0  0  0
    0.3280   -5.0520    0.2970 C   0  0  0  0  0  0  0  0  0  0  0  0
   -1.5210   -5.3170   -1.8290 C   0  0  0  0  0  0  0  0  0  0  0  0
   -0.3470   -6.1140   -1.7940 C   0  0  0  0  0  0  0  0  0  0  0  0
   -4.7780   -2.5070    0.5590 C   0  0  0  0  0  0  0  0  0  0  0  0
   -5.6330   -2.6050   -0.5350 C   0  0  0  0  0  0  0  0  0  0  0  0
   -5.2300   -3.2490   -1.7030 C   0  0  0  0  0  0  0  0  0  0  0  0
   -3.9390   -3.8170   -1.8490 C   0  0  0  0  0  0  0  0  0  0  0  0
   -3.4260   -4.3920   -3.0540 C   0  0  0  0  0  0  0  0  0  0  0  0
   -2.3400   -5.2900   -2.9800 C   0  0  0  0  0  0  0  0  0  0  0  0
    3.9360   -7.3380    0.2060 C   0  0  0  0  0  0  0  0  0  0  0  0
    4.1240   -8.3090   -0.7750 C   0  0  0  0  0  0  0  0  0  0  0  0
    3.1720   -8.4690   -1.7710 C   0  0  0  0  0  0  0  0  0  0  0  0
    2.0190   -7.6780   -1.7750 C   0  0  0  0  0  0  0  0  0  0  0  0
    1.0650   -7.8550   -2.7730 C   0  0  0  0  0  0  0  0  0  0  0  0
   -0.0970   -7.0800   -2.7930 C   0  0  0  0  0  0  0  0  0  0  0  0
   -1.9670   -6.1430   -4.1780 C   0  0  0  0  0  0  0  0  0  0  0  0
   -1.1600   -7.3810   -3.8120 C   0  0  0  0  0  0  0  0  0  0  0  0
   -3.0530   -2.4210    2.9040 C   0  0  1  0  0  0  0  0  0  0  0  0
   -4.1280   -1.3560    2.6820 C   0  0  0  0  0  0  0  0  0  0  0  0
   -5.2920   -1.8710    1.8460 C   0  0  1  0  0  0  0  0  0  0  0  0
   -6.3180   -3.4980   -2.6700 C   0  0  0  0  0  0  0  0  0  0  0  0
   -7.1580   -2.6470   -2.9360 O   0  0  0  0  0  0  0  0  0  0  0  0
   -6.2950   -0.7230    1.6540 C   0  0  0  0  0  0  0  0  0  0  0  0
   -3.4940   -3.5770    3.8360 C   0  0  0  0  0  0  0  0  0  0  0  0
   -3.8370   -3.8530   -4.4320 C   0  0  0  0  0  0  0  0  0  0  0  0
    3.6550   -5.1950    2.2340 C   0  0  0  0  0  0  0  0  0  0  0  0
    2.2320   -0.2390    7.0620 C   0  0  0  0  0  0  0  0  0  0  0  0
   -1.2040   -3.6000    6.1010 C   0  0  0  0  0  0  0  0  0  0  0  0
   -2.5170    1.0560    7.1010 C   0  0  0  0  0  0  0  0  0  0  0  0
    1.8550   -1.5900    6.8410 C   0  0  0  0  0  0  0  0  0  0  0  0
    1.2020    0.7320    7.2050 C   0  0  0  0  0  0  0  0  0  0  0  0
    0.1270   -3.2700    6.3630 C   0  0  0  0  0  0  0  0  0  0  0  0
   -1.2390    1.3460    7.3770 C   0  0  0  0  0  0  0  0  0  0  0  0
   -2.2010   -2.6250    6.1030 C   0  0  0  0  0  0  0  0  0  0  0  0
   -2.9670   -0.2540    6.5520 C   0  0  0  0  0  0  0  0  0  0  0  0
    0.4860   -1.9310    6.6550 C   0  0  0  0  0  0  0  0  0  0  0  0
   -0.1640    0.3710    7.1040 C   0  0  0  0  0  0  0  0  0  0  0  0
   -1.8800   -1.3090    6.4830 C   0  0  0  0  0  0  0  0  0  0  0  0
   -0.5290   -0.9480    6.7520 C   0  0  0  0  0  0  0  0  0  0  0  0
    3.6180    0.0980    7.1470 C   0  0  0  0  0  0  0  0  0  0  0  0
    4.5600   -0.9350    7.1520 C   0  0  0  0  0  0  0  0  0  0  0  0
    4.1870   -2.2610    6.9600 C   0  0  0  0  0  0  0  0  0  0  0  0
    2.8390   -2.6100    6.7860 C   0  0  0  0  0  0  0  0  0  0  0  0
    2.4320   -3.9370    6.5540 C   0  0  0  0  0  0  0  0  0  0  0  0
    1.1060   -4.2600    6.3200 C   0  0  0  0  0  0  0  0  0  0  0  0
    1.6100    2.1550    7.5190 C   0  0  0  0  0  0  0  0  0  0  0  0
    2.9170    2.5000    6.8370 C   0  0  0  0  0  0  0  0  0  0  0  0
    4.0440    1.5640    7.2850 C   0  0  2  0  0  0  0  0  0  0  0  0
   -3.5650    2.0780    7.3550 C   0  0  0  0  0  0  0  0  0  0  0  0
   -3.3180    3.2460    7.6360 O   0  0  0  0  0  0  0  0  0  0  0  0
    5.8850   -0.6600    7.3600 O   0  0  0  0  0  0  0  0  0  0  0  0
   -3.8500   -3.0880    5.5700 S   0  0  0  0  0  0  0  0  0  0  0  0
    3.3120   -4.9880    6.5350 O   0  0  0  0  0  0  0  0  0  0  0  0
    5.2910    1.9760    6.4870 C   0  0  0  0  0  0  0  0  0  0  0  0
   -4.7810    3.9360   -4.5270 C   0  0  0  0  0  0  0  0  0  0  0  0
   -4.5180    4.6130   -5.7510 C   0  0  0  0  0  0  0  0  0  0  0  0
    2.7690    8.9370   -3.7420 C   0  0  0  0  0  0  0  0  0  0  0  0
    2.0680    8.9040   -4.9690 C   0  0  0  0  0  0  0  0  0  0  0  0
   -3.8640    4.1380   -3.4400 C   0  0  0  0  0  0  0  0  0  0  0  0
   -3.3640    5.4210   -5.8960 C   0  0  0  0  0  0  0  0  0  0  0  0
    2.3650    8.1600   -2.6380 C   0  0  0  0  0  0  0  0  0  0  0  0
    0.9320    8.0870   -5.1130 C   0  0  0  0  0  0  0  0  0  0  0  0
   -1.6720    5.0510   -2.5450 C   0  0  0  0  0  0  0  0  0  0  0  0
    0.5370    6.3840   -1.8020 C   0  0  2  0  0  0  0  0  0  0  0  0
   -1.3440    6.3790   -5.0120 C   0  0  0  0  0  0  0  0  0  0  0  0
   -2.6670    4.8930   -3.5720 C   0  0  0  0  0  0  0  0  0  0  0  0
   -2.4660    5.5510   -4.8200 C   0  0  0  0  0  0  0  0  0  0  0  0
    1.2640    7.3300   -2.7750 C   0  0  0  0  0  0  0  0  0  0  0  0
   -0.5910    5.9030   -2.7290 C   0  0  0  0  0  0  0  0  0  0  0  0
    0.6020    7.3370   -3.9870 C   0  0  0  0  0  0  0  0  0  0  0  0
   -0.4700    6.5220   -3.9460 C   0  0  0  0  0  0  0  0  0  0  0  0
    0.0790    7.9420   -6.2420 C   0  0  0  0  0  0  0  0  0  0  0  0
   -1.0660    7.0920   -6.1950 C   0  0  0  0  0  0  0  0  0  0  0  0
   -1.9680    6.9290   -7.2530 C   0  0  0  0  0  0  0  0  0  0  0  0
   -3.1040    6.1110   -7.1180 C   0  0  0  0  0  0  0  0  0  0  0  0
   -5.9630    3.1390   -4.4970 C   0  0  0  0  0  0  0  0  0  0  0  0
   -6.8460    3.0580   -5.5840 C   0  0  0  0  0  0  0  0  0  0  0  0
   -6.5670    3.7410   -6.7580 C   0  0  0  0  0  0  0  0  0  0  0  0
   -5.4070    4.5090   -6.8580 C   0  0  0  0  0  0  0  0  0  0  0  0
   -5.1350    5.1840   -8.0540 C   0  0  0  0  0  0  0  0  0  0  0  0
   -3.9980    5.9750   -8.1840 C   0  0  0  0  0  0  0  0  0  0  0  0
   -6.3320    2.3090   -3.3410 C   0  0  0  0  0  0  0  0  0  0  0  0
   -7.4730    2.3160   -2.8990 O   0  0  0  0  0  0  0  0  0  0  0  0
   -0.0250    7.1840   -0.6250 C   0  0  0  0  0  0  0  0  0  0  0  0
   -1.2140    7.2930   -0.3290 O   0  0  0  0  0  0  0  0  0  0  0  0
   -4.1490    3.5040   -2.2480 O   0  0  0  0  0  0  0  0  0  0  0  0
    1.3950    5.1970   -1.3110 C   0  0  0  0  0  0  0  0  0  0  0  0
    2.6770    5.5870   -0.5590 C   0  0  0  0  0  0  0  0  0  0  0  0
    3.3360    4.4010    0.1220 C   0  0  0  0  0  0  0  0  0  0  0  0
    2.2130   -4.9050   -3.8210 H   0  0  0  0  0  0  0  0  0  0  0  0
    5.3700   -1.5370   -0.8700 H   0  0  0  0  0  0  0  0  0  0  0  0
    4.2940   -5.6930   -3.2170 H   0  0  0  0  0  0  0  0  0  0  0  0
    0.2220   -4.1060   -4.7460 H   0  0  0  0  0  0  0  0  0  0  0  0
    7.5990   -2.2610   -0.4300 H   0  0  0  0  0  0  0  0  0  0  0  0
    9.3920   -3.9220   -0.7200 H   0  0  0  0  0  0  0  0  0  0  0  0
    8.9130   -6.0820   -1.8470 H   0  0  0  0  0  0  0  0  0  0  0  0
   -0.3100    2.3010   -1.6820 H   0  0  0  0  0  0  0  0  0  0  0  0
   -2.0760    0.1720   -4.6940 H   0  0  0  0  0  0  0  0  0  0  0  0
    1.4080    1.3150   -0.2610 H   0  0  0  0  0  0  0  0  0  0  0  0
   -3.2900   -1.8290   -3.7950 H   0  0  0  0  0  0  0  0  0  0  0  0
   -3.8230   -1.9470   -5.4620 H   0  0  0  0  0  0  0  0  0  0  0  0
    5.7310   -7.0820   -2.6140 H   0  0  0  0  0  0  0  0  0  0  0  0
    3.1400    0.7840   -2.6640 H   0  0  0  0  0  0  0  0  0  0  0  0
    3.5820    1.6230   -1.1820 H   0  0  0  0  0  0  0  0  0  0  0  0
    4.5860    0.3200   -1.7860 H   0  0  0  0  0  0  0  0  0  0  0  0
    1.0070   -1.1080    1.0930 H   0  0  0  0  0  0  0  0  0  0  0  0
   -0.3330   -1.1660    0.0190 H   0  0  0  0  0  0  0  0  0  0  0  0
    3.0400   -1.4480    1.0800 H   0  0  0  0  0  0  0  0  0  0  0  0
    4.4760   -0.6800    0.4930 H   0  0  0  0  0  0  0  0  0  0  0  0
    3.6960    1.5550    1.1250 H   0  0  0  0  0  0  0  0  0  0  0  0
    3.9010    0.4220    2.4590 H   0  0  0  0  0  0  0  0  0  0  0  0
    2.2850    0.8230    1.9110 H   0  0  0  0  0  0  0  0  0  0  0  0
   -2.0930   -0.2930   -0.5100 H   0  0  0  0  0  0  0  0  0  0  0  0
   -4.0080    1.0450   -1.1580 H   0  0  0  0  0  0  0  0  0  0  0  0
    0.1360    2.6620    2.7470 H   0  0  0  0  0  0  0  0  0  0  0  0
   -1.1130    2.0110    3.8050 H   0  0  0  0  0  0  0  0  0  0  0  0
   -3.2990    3.7660    4.2120 H   0  0  0  0  0  0  0  0  0  0  0  0
   -3.0970    5.4310    3.7080 H   0  0  0  0  0  0  0  0  0  0  0  0
   -1.1800    6.9510    3.7880 H   0  0  0  0  0  0  0  0  0  0  0  0
   -0.2470    7.3360    2.3450 H   0  0  0  0  0  0  0  0  0  0  0  0
   -1.9450    6.8270    2.1750 H   0  0  0  0  0  0  0  0  0  0  0  0
   -5.4510    4.9180   -1.4510 H   0  0  0  0  0  0  0  0  0  0  0  0
   -3.7620    5.1540   -1.0130 H   0  0  0  0  0  0  0  0  0  0  0  0
   -1.2340    3.5850    5.5650 H   0  0  0  0  0  0  0  0  0  0  0  0
    0.3020    4.2180    4.9490 H   0  0  0  0  0  0  0  0  0  0  0  0
   -1.0330    5.3160    5.3200 H   0  0  0  0  0  0  0  0  0  0  0  0
   -5.4160    6.3180    0.8500 H   0  0  0  0  0  0  0  0  0  0  0  0
   -6.3780    5.3110    1.9510 H   0  0  0  0  0  0  0  0  0  0  0  0
   -4.9890    6.2200    2.5560 H   0  0  0  0  0  0  0  0  0  0  0  0
   -6.2460    2.1460   -0.5200 H   0  0  0  0  0  0  0  0  0  0  0  0
   -6.9230    3.6890    0.0170 H   0  0  0  0  0  0  0  0  0  0  0  0
   -6.3340    2.5130    1.1970 H   0  0  0  0  0  0  0  0  0  0  0  0
   -0.4520   -2.7930    3.3260 H   0  0  0  0  0  0  0  0  0  0  0  0
    1.6540   -3.8310    3.1920 H   0  0  0  0  0  0  0  0  0  0  0  0
   -6.6490   -2.2200   -0.4830 H   0  0  0  0  0  0  0  0  0  0  0  0
    4.7060   -7.2580    0.9710 H   0  0  0  0  0  0  0  0  0  0  0  0
    5.0070   -8.9410   -0.7530 H   0  0  0  0  0  0  0  0  0  0  0  0
    3.3270   -9.2330   -2.5310 H   0  0  0  0  0  0  0  0  0  0  0  0
    1.2100   -8.6130   -3.5380 H   0  0  0  0  0  0  0  0  0  0  0  0
   -2.8750   -6.4910   -4.6880 H   0  0  0  0  0  0  0  0  0  0  0  0
   -1.4010   -5.5370   -4.8900 H   0  0  0  0  0  0  0  0  0  0  0  0
   -1.8230   -8.1480   -3.3900 H   0  0  0  0  0  0  0  0  0  0  0  0
   -0.7190   -7.7980   -4.7250 H   0  0  0  0  0  0  0  0  0  0  0  0
   -2.2220   -1.8730    3.3600 H   0  0  0  0  0  0  0  0  0  0  0  0
   -3.6720   -0.4970    2.1780 H   0  0  0  0  0  0  0  0  0  0  0  0
   -4.4940   -0.9720    3.6410 H   0  0  0  0  0  0  0  0  0  0  0  0
   -5.8150   -2.6590    2.4040 H   0  0  0  0  0  0  0  0  0  0  0  0
   -6.3460   -4.5010   -3.1290 H   0  0  0  0  0  0  0  0  0  0  0  0
   -7.2470   -1.0830    1.2500 H   0  0  0  0  0  0  0  0  0  0  0  0
   -5.9080    0.0400    0.9730 H   0  0  0  0  0  0  0  0  0  0  0  0
   -6.5270   -0.2400    2.6110 H   0  0  0  0  0  0  0  0  0  0  0  0
   -4.3990   -4.0570    3.4470 H   0  0  0  0  0  0  0  0  0  0  0  0
   -2.7380   -4.3690    3.8620 H   0  0  0  0  0  0  0  0  0  0  0  0
   -4.9190   -3.8010   -4.5340 H   0  0  0  0  0  0  0  0  0  0  0  0
   -3.5480   -4.5300   -5.2390 H   0  0  0  0  0  0  0  0  0  0  0  0
    3.5560   -5.8270    3.1210 H   0  0  0  0  0  0  0  0  0  0  0  0
    3.6320   -4.1430    2.5310 H   0  0  0  0  0  0  0  0  0  0  0  0
    4.6540   -5.3220    1.8070 H   0  0  0  0  0  0  0  0  0  0  0  0
   -1.4600   -4.6310    5.8570 H   0  0  0  0  0  0  0  0  0  0  0  0
   -0.9900    2.3030    7.8210 H   0  0  0  0  0  0  0  0  0  0  0  0
   -3.3590   -0.0860    5.5430 H   0  0  0  0  0  0  0  0  0  0  0  0
   -3.7760   -0.6290    7.1910 H   0  0  0  0  0  0  0  0  0  0  0  0
    4.9590   -3.0240    6.9130 H   0  0  0  0  0  0  0  0  0  0  0  0
    0.8460   -5.2980    6.1150 H   0  0  0  0  0  0  0  0  0  0  0  0
    1.6900    2.2740    8.6080 H   0  0  0  0  0  0  0  0  0  0  0  0
    0.8740    2.8760    7.1530 H   0  0  0  0  0  0  0  0  0  0  0  0
    3.1770    3.5410    7.0680 H   0  0  0  0  0  0  0  0  0  0  0  0
    2.7870    2.4380    5.7470 H   0  0  0  0  0  0  0  0  0  0  0  0
    4.2410    1.7420    8.3510 H   0  0  0  0  0  0  0  0  0  0  0  0
   -4.6030    1.7210    7.2580 H   0  0  0  0  0  0  0  0  0  0  0  0
    6.3790   -1.4830    7.4760 H   0  0  0  0  0  0  0  0  0  0  0  0
    3.9450   -4.8510    7.2590 H   0  0  0  0  0  0  0  0  0  0  0  0
    5.2370    1.6260    5.4500 H   0  0  0  0  0  0  0  0  0  0  0  0
    6.2150    1.5950    6.9290 H   0  0  0  0  0  0  0  0  0  0  0  0
    5.4010    3.0680    6.4650 H   0  0  0  0  0  0  0  0  0  0  0  0
    3.6380    9.5850   -3.6480 H   0  0  0  0  0  0  0  0  0  0  0  0
    2.3990    9.5270   -5.7920 H   0  0  0  0  0  0  0  0  0  0  0  0
    2.9190    8.2310   -1.7070 H   0  0  0  0  0  0  0  0  0  0  0  0
   -1.7760    4.5270   -1.5990 H   0  0  0  0  0  0  0  0  0  0  0  0
    0.2970    8.5050   -7.1470 H   0  0  0  0  0  0  0  0  0  0  0  0
   -1.7880    7.4550   -8.1880 H   0  0  0  0  0  0  0  0  0  0  0  0
   -7.7460    2.4490   -5.5160 H   0  0  0  0  0  0  0  0  0  0  0  0
   -7.2590    3.6620   -7.5930 H   0  0  0  0  0  0  0  0  0  0  0  0
   -5.8150    5.1020   -8.9000 H   0  0  0  0  0  0  0  0  0  0  0  0
   -3.8220    6.4900   -9.1250 H   0  0  0  0  0  0  0  0  0  0  0  0
   -5.5380    1.6800   -2.9080 H   0  0  0  0  0  0  0  0  0  0  0  0
    0.7280    7.6980   -0.0040 H   0  0  0  0  0  0  0  0  0  0  0  0
    1.6810    4.5660   -2.1630 H   0  0  0  0  0  0  0  0  0  0  0  0
    0.7810    4.5610   -0.6600 H   0  0  0  0  0  0  0  0  0  0  0  0
    3.4020    6.0090   -1.2590 H   0  0  0  0  0  0  0  0  0  0  0  0
    2.4750    6.3460    0.2020 H   0  0  0  0  0  0  0  0  0  0  0  0
    4.2570    4.7130    0.6240 H   0  0  0  0  0  0  0  0  0  0  0  0
    3.6040    3.6430   -0.6140 H   0  0  0  0  0  0  0  0  0  0  0  0
    2.6790    3.9470    0.8670 H   0  0  0  0  0  0  0  0  0  0  0  0
  1  2  1  0
  1  5  2  0
  1 11  1  0
  2  6  2  0
  2 14  1  0
  3  4  2  0
  3  7  1  0
  3 15  1  0
  4  8  1  0
  4 18  1  0
  5  9  1  0
  5 23  1  0
  6 10  1  0
  6155  1  0
  7  9  2  0
  7156  1  0
  8 10  2  0
  8157  1  0
  9 10  1  0
 11 12  2  0
 11 19  1  0
 12 13  1  0
 12 22  1  0
 13 14  2  0
 13 25  1  0
 14158  1  0
 15 16  2  0
 15159  1  0
 16 17  1  0
 16160  1  0
 17 18  2  0
 17161  1  0
 18 28  1  0
 19 20  2  0
 19 24  1  0
 20 21  1  0
 20162  1  0
 21 22  2  0
 22163  1  0
 23 24  1  0
 23 29  1  6
 23 31  1  0
 24 30  1  0
 24164  1  1
 25 26  2  0
 25 27  1  0
 27 90  1  0
 27165  1  0
 27166  1  0
 28167  1  0
 29168  1  0
 29169  1  0
 29170  1  0
 30 48  1  0
 30171  1  0
 30172  1  0
 31 32  1  0
 31173  1  0
 31174  1  0
 32175  1  0
 32176  1  0
 32177  1  0
 33 34  2  0
 33 36  1  0
 33 48  1  0
 34 37  1  0
 34178  1  0
 35 38  2  0
 35 39  1  0
 35 51  1  0
 36 40  2  0
 36 42  1  0
 37 41  2  0
 37179  1  0
 38 40  1  0
 38 44  1  0
 39 41  1  0
 39 49  1  6
 39 52  1  0
 40 41  1  0
 42 43  1  0
 42180  1  0
 42181  1  0
 43 44  1  0
 43 45  1  0
 43 50  1  1
 44182  1  0
 44183  1  0
 45 46  2  0
 45 47  1  0
 47184  1  0
 47185  1  0
 47186  1  0
 49151  1  0
 49187  1  0
 49188  1  0
 50189  1  0
 50190  1  0
 50191  1  0
 51192  1  0
 51193  1  0
 51194  1  0
 52195  1  0
 52196  1  0
 52197  1  0
 53 55  1  0
 53 57  2  0
 53 69  1  0
 54 56  1  0
 54 58  2  0
 54 75  1  0
 55 59  2  0
 55 72  1  0
 56 60  2  0
 56 78  1  0
 57 63  1  0
 57 83  1  0
 58 64  1  0
 58 91  1  0
 59 65  1  0
 59 67  1  0
 60 66  1  0
 60 68  1  0
 61 62  1  0
 61 63  2  0
 61198  1  0
 62 64  2  0
 62199  1  0
 63 65  1  0
 64 66  1  0
 65 66  2  0
 67 68  2  0
 67 74  1  0
 68 80  1  0
 69 70  2  0
 69 85  1  0
 70 71  1  0
 70200  1  0
 71 72  2  0
 71 86  1  0
 72 73  1  0
 73 74  2  0
 73 90  1  0
 74 81  1  0
 75 76  2  0
 75201  1  0
 76 77  1  0
 76202  1  0
 77 78  2  0
 77203  1  0
 78 79  1  0
 79 80  2  0
 79204  1  0
 80 82  1  0
 81 82  1  0
 81205  1  0
 81206  1  0
 82207  1  0
 82208  1  0
 83 84  1  0
 83 89  1  0
 83209  1  1
 84 85  1  0
 84210  1  0
 84211  1  0
 85 88  1  0
 85212  1  1
 86 87  2  0
 86213  1  0
 88214  1  0
 88215  1  0
 88216  1  0
 89117  1  0
 89217  1  0
 89218  1  0
 90219  1  0
 90220  1  0
 91221  1  0
 91222  1  0
 91223  1  0
 92 95  1  0
 92 96  2  0
 92105  1  0
 93 97  2  0
 93 99  1  0
 93224  1  0
 94 98  2  0
 94100  1  0
 94114  1  0
 95101  2  0
 95108  1  0
 96102  1  0
 96111  1  0
 97101  1  0
 97110  1  0
 98102  1  0
 98225  1  0
 99103  2  0
 99117  1  0
100103  1  0
100226  1  0
100227  1  0
101104  1  0
102104  2  0
103104  1  0
105106  2  0
105113  1  0
106107  1  0
106116  1  0
107108  2  0
107228  1  0
108109  1  0
109110  2  0
109118  1  0
110229  1  0
111112  1  0
111230  1  0
111231  1  0
112113  1  0
112232  1  0
112233  1  0
113119  1  0
113234  1  1
114115  2  0
114235  1  0
116236  1  0
118237  1  0
119238  1  0
119239  1  0
119240  1  0
120121  2  0
120124  1  0
120141  1  0
121125  1  0
121144  1  0
122123  2  0
122126  1  0
122241  1  0
123127  1  0
123242  1  0
124131  2  0
124151  1  0
125132  2  0
125140  1  0
126133  2  0
126243  1  0
127135  2  0
127137  1  0
128131  1  0
128134  2  0
128244  1  0
129133  1  0
129134  1  0
129149  1  0
129152  1  1
130132  1  0
130136  2  0
130138  1  0
131132  1  0
133135  1  0
134136  1  0
135136  1  0
137138  2  0
137245  1  0
138139  1  0
139140  2  0
139246  1  0
140146  1  0
141142  2  0
141147  1  0
142143  1  0
142247  1  0
143144  2  0
143248  1  0
144145  1  0
145146  2  0
145249  1  0
146250  1  0
147148  2  0
147251  1  0
149150  2  0
149252  1  0
152153  1  0
152253  1  0
152254  1  0
153154  1  0
153255  1  0
153256  1  0
154257  1  0
154258  1  0
154259  1  0
M  END
