
     RDKit          3D

274305  0  0  0  0  0  0  0  0999 V2000
   -0.3900    6.7490    2.7560 C   0  0  0  0  0  0  0  0  0  0  0  0
   -0.4430    6.0320    3.9610 C   0  0  0  0  0  0  0  0  0  0  0  0
    9.3080    1.0130    2.0750 C   0  0  0  0  0  0  0  0  0  0  0  0
    8.4490    0.8820    3.2160 C   0  0  0  0  0  0  0  0  0  0  0  0
    0.8450    6.9970    2.1720 C   0  0  0  0  0  0  0  0  0  0  0  0
    0.7040    5.3510    4.4430 C   0  0  0  0  0  0  0  0  0  0  0  0
    8.9900    1.9380    1.0590 C   0  0  0  0  0  0  0  0  0  0  0  0
    7.2970    1.7030    3.3670 C   0  0  0  0  0  0  0  0  0  0  0  0
    3.0810    6.2220    1.7160 C   0  0  0  0  0  0  0  0  0  0  0  0
    2.9530    4.4910    3.9390 C   0  0  0  0  0  0  0  0  0  0  0  0
    7.3060    3.8420    0.3370 C   0  0  0  0  0  0  0  0  0  0  0  0
    5.1550    5.2010    0.9850 C   0  0  0  0  0  0  0  0  0  0  0  0
    5.0740    3.4910    3.2940 C   0  0  0  0  0  0  0  0  0  0  0  0
    1.9510    6.2290    2.5390 C   0  0  0  0  0  0  0  0  0  0  0  0
    1.8760    5.3670    3.6550 C   0  0  0  0  0  0  0  0  0  0  0  0
    7.8780    2.7400    1.1980 C   0  0  0  0  0  0  0  0  0  0  0  0
    4.1080    5.3030    1.9200 C   0  0  0  0  0  0  0  0  0  0  0  0
    4.0490    4.4370    3.0590 C   0  0  0  0  0  0  0  0  0  0  0  0
    6.1180    4.2370    1.1790 C   0  0  0  0  0  0  0  0  0  0  0  0
    7.0880    2.5860    2.3240 C   0  0  0  0  0  0  0  0  0  0  0  0
    6.0570    3.4480    2.3080 C   0  0  0  0  0  0  0  0  0  0  0  0
    6.3530    1.7340    4.4680 C   0  0  0  0  0  0  0  0  0  0  0  0
    5.1440    2.5900    4.3900 C   0  0  0  0  0  0  0  0  0  0  0  0
    3.9620    2.6610    5.2060 C   0  0  0  0  0  0  0  0  0  0  0  0
    2.9010    3.6210    5.0400 C   0  0  0  0  0  0  0  0  0  0  0  0
    1.7780    3.7460    5.9020 C   0  0  0  0  0  0  0  0  0  0  0  0
    0.6890    4.5900    5.6340 C   0  0  0  0  0  0  0  0  0  0  0  0
   -1.7390    5.9080    4.7390 C   0  0  2  0  0  0  0  0  0  0  0  0
   -1.4120    5.7540    6.2250 C   0  0  0  0  0  0  0  0  0  0  0  0
   -0.4430    4.6920    6.5160 N   0  0  0  0  0  0  0  0  0  0  0  0
    8.7500   -0.1120    4.3110 C   0  0  0  0  0  0  0  0  0  0  0  0
    7.5380   -0.3690    5.2060 C   0  0  0  0  0  0  0  0  0  0  0  0
    6.8970    0.9530    5.6830 C   0  0  2  0  0  0  0  0  0  0  0  0
   -0.6040    3.9810    7.6990 C   0  0  0  0  0  0  0  0  0  0  0  0
    0.1650    3.1940    8.2420 O   0  0  0  0  0  0  0  0  0  0  0  0
   -1.5870    7.0600    2.1700 O   0  0  0  0  0  0  0  0  0  0  0  0
    3.7680    1.6300    6.0940 O   0  0  0  0  0  0  0  0  0  0  0  0
    9.7880    2.0190   -0.0440 O   0  0  0  0  0  0  0  0  0  0  0  0
    6.0770    0.6580    6.9330 C   0  0  0  0  0  0  0  0  0  0  0  0
   -2.6080    4.7500    4.2500 C   0  0  0  0  0  0  0  0  0  0  0  0
   10.5260    0.1360    1.9300 C   0  0  0  0  0  0  0  0  0  0  0  0
   -1.1760    6.0120   -4.0550 C   0  0  0  0  0  0  0  0  0  0  0  0
   -0.9820    5.6830   -2.6990 C   0  0  0  0  0  0  0  0  0  0  0  0
    2.3870    2.7120   -5.4210 C   0  0  0  0  0  0  0  0  0  0  0  0
    2.4590    2.3410   -4.0680 C   0  0  0  0  0  0  0  0  0  0  0  0
   -0.5270    5.2560   -5.0700 C   0  0  0  0  0  0  0  0  0  0  0  0
   -0.0850    4.6200   -2.4140 C   0  0  0  0  0  0  0  0  0  0  0  0
    1.5280    3.8370   -5.7220 C   0  0  0  0  0  0  0  0  0  0  0  0
    1.6440    2.9750   -3.1260 C   0  0  0  0  0  0  0  0  0  0  0  0
    0.5740    4.3770   -4.7700 C   0  0  0  0  0  0  0  0  0  0  0  0
    0.7080    3.9900   -3.4280 C   0  0  0  0  0  0  0  0  0  0  0  0
   -2.0580    7.0640   -4.3930 C   0  0  0  0  0  0  0  0  0  0  0  0
   -2.7490    7.7680   -3.4090 C   0  0  0  0  0  0  0  0  0  0  0  0
   -2.6040    7.4160   -2.0790 C   0  0  0  0  0  0  0  0  0  0  0  0
   -1.7250    6.3860   -1.6920 C   0  0  0  0  0  0  0  0  0  0  0  0
    3.2020    1.9390   -6.3150 C   0  0  0  0  0  0  0  0  0  0  0  0
    4.1240    0.9790   -5.8630 C   0  0  0  0  0  0  0  0  0  0  0  0
    4.2090    0.7130   -4.5140 C   0  0  0  0  0  0  0  0  0  0  0  0
    3.3660    1.3610   -3.6250 C   0  0  0  0  0  0  0  0  0  0  0  0
   -1.2180    5.2090   -6.4560 C   0  0  2  0  0  0  0  0  0  0  0  0
   -2.4330    6.1490   -6.6090 C   0  0  0  0  0  0  0  0  0  0  0  0
   -2.2360    7.4380   -5.8410 C   0  0  0  0  0  0  0  0  0  0  0  0
   -0.0260    4.1230   -0.9920 C   0  0  0  0  0  0  0  0  0  0  0  0
   -0.3190    5.2260    0.0010 C   0  0  0  0  0  0  0  0  0  0  0  0
   -1.6450    5.9700   -0.1900 C   0  0  2  0  0  0  0  0  0  0  0  0
    3.0190    1.9770   -7.7840 C   0  0  0  0  0  0  0  0  0  0  0  0
    3.8900    1.6050   -8.5630 O   0  0  0  0  0  0  0  0  0  0  0  0
    5.0880   -0.1990   -4.0130 O   0  0  0  0  0  0  0  0  0  0  0  0
   -1.6570    3.7520   -6.8070 C   0  0  0  0  0  0  0  0  0  0  0  0
   -2.9010    5.0770    0.1120 C   0  0  0  0  0  0  0  0  0  0  0  0
    1.7860    4.6180   -7.0010 C   0  0  0  0  0  0  0  0  0  0  0  0
   -1.6500    7.2580    0.7420 C   0  0  0  0  0  0  0  0  0  0  0  0
   -2.4590    0.3280   -8.1490 C   0  0  0  0  0  0  0  0  0  0  0  0
   -2.6980    0.2400   -9.5630 C   0  0  0  0  0  0  0  0  0  0  0  0
   -6.3420    2.8870   -8.1960 C   0  0  0  0  0  0  0  0  0  0  0  0
   -3.2410    1.1920   -7.3390 C   0  0  0  0  0  0  0  0  0  0  0  0
   -3.8300    0.9220  -10.1000 C   0  0  0  0  0  0  0  0  0  0  0  0
   -5.4470    2.5350   -7.2620 C   0  0  0  0  0  0  0  0  0  0  0  0
   -5.9970    2.3240   -9.5620 C   0  0  1  0  0  0  0  0  0  0  0  0
   -4.3940    1.7510   -7.8940 C   0  0  0  0  0  0  0  0  0  0  0  0
   -4.6890    1.6170   -9.2540 C   0  0  0  0  0  0  0  0  0  0  0  0
   -1.4520   -0.4760   -7.5510 C   0  0  0  0  0  0  0  0  0  0  0  0
   -0.5930   -1.2350   -8.3470 C   0  0  0  0  0  0  0  0  0  0  0  0
   -0.7190   -1.2080   -9.7220 C   0  0  0  0  0  0  0  0  0  0  0  0
   -1.7660   -0.5150  -10.3200 C   0  0  0  0  0  0  0  0  0  0  0  0
   -2.8010    1.5520   -5.9180 C   0  0  1  0  0  0  0  0  0  0  0  0
   -1.5260    0.8030   -5.4240 C   0  0  2  0  0  0  0  0  0  0  0  0
   -1.3940   -0.6000   -6.0360 C   0  0  1  0  0  0  0  0  0  0  0  0
   -4.1620    0.8760  -11.5390 C   0  0  0  0  0  0  0  0  0  0  0  0
   -4.5990    1.8570  -12.1330 O   0  0  0  0  0  0  0  0  0  0  0  0
    0.1800   -1.8590  -10.5240 O   0  0  0  0  0  0  0  0  0  0  0  0
    0.3640   -2.0290   -7.7830 O   0  0  0  0  0  0  0  0  0  0  0  0
   -1.8360   -0.5800  -11.6900 O   0  0  0  0  0  0  0  0  0  0  0  0
   -2.4470   -1.6070   -5.5530 C   0  0  0  0  0  0  0  0  0  0  0  0
   -2.5840    3.0900   -5.7550 C   0  0  0  0  0  0  0  0  0  0  0  0
   -7.0820    1.3700  -10.0560 C   0  0  0  0  0  0  0  0  0  0  0  0
   -1.4550    0.7440   -3.8870 C   0  0  0  0  0  0  0  0  0  0  0  0
   -7.5460    3.7350   -7.9770 C   0  0  0  0  0  0  0  0  0  0  0  0
   -2.8820   -1.0290   -0.1910 C   0  0  0  0  0  0  0  0  0  0  0  0
   -1.6480   -1.3050    0.4390 C   0  0  0  0  0  0  0  0  0  0  0  0
   -2.8880   -5.6250   -0.9310 C   0  0  0  0  0  0  0  0  0  0  0  0
   -3.5900   -2.0890   -0.8100 C   0  0  0  0  0  0  0  0  0  0  0  0
   -1.1390   -2.6270    0.4440 C   0  0  0  0  0  0  0  0  0  0  0  0
   -3.7250   -4.5950   -1.2150 C   0  0  0  0  0  0  0  0  0  0  0  0
   -1.6110   -5.1550   -0.1690 C   0  0  1  0  0  0  0  0  0  0  0  0
   -3.0840   -3.3760   -0.7370 C   0  0  0  0  0  0  0  0  0  0  0  0
   -1.8720   -3.6560   -0.1290 C   0  0  0  0  0  0  0  0  0  0  0  0
   -3.4140    0.2890   -0.2200 C   0  0  0  0  0  0  0  0  0  0  0  0
   -2.7270    1.3810    0.3970 C   0  0  0  0  0  0  0  0  0  0  0  0
   -1.5200    1.0630    1.1140 C   0  0  0  0  0  0  0  0  0  0  0  0
   -0.9820   -0.2420    1.0620 C   0  0  0  0  0  0  0  0  0  0  0  0
   -4.6560    0.4860   -0.8870 C   0  0  0  0  0  0  0  0  0  0  0  0
   -5.2330    1.7530   -0.9140 C   0  0  0  0  0  0  0  0  0  0  0  0
   -4.5780    2.8370   -0.3490 C   0  0  0  0  0  0  0  0  0  0  0  0
   -3.3130    2.6880    0.2370 C   0  0  0  0  0  0  0  0  0  0  0  0
   -5.3090   -0.5790   -1.5270 C   0  0  0  0  0  0  0  0  0  0  0  0
   -4.7800   -1.8690   -1.4990 C   0  0  0  0  0  0  0  0  0  0  0  0
   -5.3910   -2.9830   -2.3180 C   0  0  0  0  0  0  0  0  0  0  0  0
   -5.1110   -4.4500   -1.8290 C   0  0  2  0  0  0  0  0  0  0  0  0
   -2.5760    3.7810    0.6460 O   0  0  0  0  0  0  0  0  0  0  0  0
    0.2340   -0.5190    1.6470 O   0  0  0  0  0  0  0  0  0  0  0  0
   -1.4800   -5.6330    1.3090 C   0  0  0  0  0  0  0  0  0  0  0  0
   -1.3150   -7.1400    1.5700 C   0  0  0  0  0  0  0  0  0  0  0  0
   -3.1340   -7.0740   -1.2470 C   0  0  0  0  0  0  0  0  0  0  0  0
   -2.5380   -7.5190   -2.5750 C   0  0  0  0  0  0  0  0  0  0  0  0
   -0.6280   -7.4330    2.9090 C   0  0  0  0  0  0  0  0  0  0  0  0
   -6.1500   -4.8170   -0.7470 C   0  0  0  0  0  0  0  0  0  0  0  0
   -5.3440   -5.3530   -3.0580 C   0  0  0  0  0  0  0  0  0  0  0  0
   -0.3280   -5.4200   -0.9720 C   0  0  0  0  0  0  0  0  0  0  0  0
   -0.8140    2.0720    1.9860 C   0  0  0  0  0  0  0  0  0  0  0  0
    1.9500   -8.7350    6.8520 C   0  0  0  0  0  0  0  0  0  0  0  0
    1.6570   -8.5360    5.4670 C   0  0  0  0  0  0  0  0  0  0  0  0
    0.3350  -13.0260    6.0310 C   0  0  0  0  0  0  0  0  0  0  0  0
    1.6760   -9.9820    7.5040 C   0  0  0  0  0  0  0  0  0  0  0  0
    1.1650   -9.6630    4.7590 C   0  0  0  0  0  0  0  0  0  0  0  0
    0.7680  -12.3890    7.1280 C   0  0  0  0  0  0  0  0  0  0  0  0
    0.3680  -12.1450    4.8020 C   0  0  1  0  0  0  0  0  0  0  0  0
    1.1420  -11.0270    6.7540 C   0  0  0  0  0  0  0  0  0  0  0  0
    0.9050  -10.8700    5.3930 C   0  0  0  0  0  0  0  0  0  0  0  0
    2.5370   -7.6910    7.6090 C   0  0  0  0  0  0  0  0  0  0  0  0
    2.8660   -6.4550    6.9990 C   0  0  0  0  0  0  0  0  0  0  0  0
    2.5810   -6.2470    5.6070 C   0  0  0  0  0  0  0  0  0  0  0  0
    1.9100   -7.2480    4.8440 C   0  0  0  0  0  0  0  0  0  0  0  0
    2.8220   -7.9010    8.9930 C   0  0  0  0  0  0  0  0  0  0  0  0
    3.4100   -6.8950    9.7620 C   0  0  0  0  0  0  0  0  0  0  0  0
    3.7320   -5.6810    9.1850 C   0  0  0  0  0  0  0  0  0  0  0  0
    3.4650   -5.4740    7.8350 C   0  0  0  0  0  0  0  0  0  0  0  0
    2.5240   -9.1160    9.6030 C   0  0  0  0  0  0  0  0  0  0  0  0
    1.9620  -10.1480    8.8670 C   0  0  0  0  0  0  0  0  0  0  0  0
    2.9640   -5.0430    4.9530 C   0  0  0  0  0  0  0  0  0  0  0  0
    2.6970   -4.7760    3.6160 C   0  0  0  0  0  0  0  0  0  0  0  0
    1.9820   -5.6940    2.8860 C   0  0  0  0  0  0  0  0  0  0  0  0
    1.5550   -6.8760    3.5000 C   0  0  0  0  0  0  0  0  0  0  0  0
    0.7770   -7.6580    2.6780 O   0  0  0  0  0  0  0  0  0  0  0  0
    1.2570  -12.7220    3.7070 C   0  0  0  0  0  0  0  0  0  0  0  0
    0.9280    7.6560    1.3140 H   0  0  0  0  0  0  0  0  0  0  0  0
    3.1170    6.8760    0.8430 H   0  0  0  0  0  0  0  0  0  0  0  0
    6.9880    3.4560   -0.6360 H   0  0  0  0  0  0  0  0  0  0  0  0
    8.0050    4.6760    0.2370 H   0  0  0  0  0  0  0  0  0  0  0  0
    5.1910    5.8410    0.1080 H   0  0  0  0  0  0  0  0  0  0  0  0
    1.7820    3.1680    6.8160 H   0  0  0  0  0  0  0  0  0  0  0  0
   -2.3120    6.8390    4.6320 H   0  0  0  0  0  0  0  0  0  0  0  0
   -0.9710    6.6850    6.6110 H   0  0  0  0  0  0  0  0  0  0  0  0
   -2.3340    5.5940    6.7970 H   0  0  0  0  0  0  0  0  0  0  0  0
    9.0660   -1.0700    3.8810 H   0  0  0  0  0  0  0  0  0  0  0  0
    9.5740    0.2830    4.9170 H   0  0  0  0  0  0  0  0  0  0  0  0
    7.8690   -0.9770    6.0580 H   0  0  0  0  0  0  0  0  0  0  0  0
    6.7880   -0.9640    4.6630 H   0  0  0  0  0  0  0  0  0  0  0  0
    7.7100    1.5930    6.0590 H   0  0  0  0  0  0  0  0  0  0  0  0
   -1.5610    4.2180    8.1900 H   0  0  0  0  0  0  0  0  0  0  0  0
    2.8570    1.6180    6.4340 H   0  0  0  0  0  0  0  0  0  0  0  0
    9.3720    2.6040   -0.6940 H   0  0  0  0  0  0  0  0  0  0  0  0
    5.7040    1.5780    7.3930 H   0  0  0  0  0  0  0  0  0  0  0  0
    5.2570   -0.0390    6.7310 H   0  0  0  0  0  0  0  0  0  0  0  0
    6.7070    0.1820    7.6950 H   0  0  0  0  0  0  0  0  0  0  0  0
   -2.0950    3.7900    4.3510 H   0  0  0  0  0  0  0  0  0  0  0  0
   -3.5360    4.6950    4.8290 H   0  0  0  0  0  0  0  0  0  0  0  0
   -2.8840    4.8740    3.2010 H   0  0  0  0  0  0  0  0  0  0  0  0
   10.2280   -0.8510    1.5630 H   0  0  0  0  0  0  0  0  0  0  0  0
   11.2560    0.5560    1.2300 H   0  0  0  0  0  0  0  0  0  0  0  0
   11.0500    0.0210    2.8850 H   0  0  0  0  0  0  0  0  0  0  0  0
    1.7480    2.6230   -2.0990 H   0  0  0  0  0  0  0  0  0  0  0  0
   -3.4260    8.5750   -3.6830 H   0  0  0  0  0  0  0  0  0  0  0  0
   -3.2130    7.9550   -1.3590 H   0  0  0  0  0  0  0  0  0  0  0  0
    4.7330    0.4290   -6.5760 H   0  0  0  0  0  0  0  0  0  0  0  0
    3.4330    1.1020   -2.5700 H   0  0  0  0  0  0  0  0  0  0  0  0
   -0.5070    5.5590   -7.2070 H   0  0  0  0  0  0  0  0  0  0  0  0
   -3.3530    5.6700   -6.2520 H   0  0  0  0  0  0  0  0  0  0  0  0
   -2.5990    6.3630   -7.6720 H   0  0  0  0  0  0  0  0  0  0  0  0
   -1.3580    7.9890   -6.1910 H   0  0  0  0  0  0  0  0  0  0  0  0
   -3.1110    8.0810   -5.9790 H   0  0  0  0  0  0  0  0  0  0  0  0
    0.9740    3.7710   -0.7250 H   0  0  0  0  0  0  0  0  0  0  0  0
   -0.7080    3.2740   -0.8980 H   0  0  0  0  0  0  0  0  0  0  0  0
    0.5030    5.9420   -0.1170 H   0  0  0  0  0  0  0  0  0  0  0  0
   -0.2570    4.8000    1.0030 H   0  0  0  0  0  0  0  0  0  0  0  0
    2.0370    2.3100   -8.1540 H   0  0  0  0  0  0  0  0  0  0  0  0
    5.6210   -0.5580   -4.7440 H   0  0  0  0  0  0  0  0  0  0  0  0
   -2.1650    3.7750   -7.7780 H   0  0  0  0  0  0  0  0  0  0  0  0
   -0.7730    3.1280   -6.9610 H   0  0  0  0  0  0  0  0  0  0  0  0
   -3.5540    5.5700    0.8420 H   0  0  0  0  0  0  0  0  0  0  0  0
   -3.4710    4.9830   -0.8170 H   0  0  0  0  0  0  0  0  0  0  0  0
    2.8370    4.5520   -7.2940 H   0  0  0  0  0  0  0  0  0  0  0  0
    1.6210    5.6870   -6.8380 H   0  0  0  0  0  0  0  0  0  0  0  0
    1.1590    4.2630   -7.8210 H   0  0  0  0  0  0  0  0  0  0  0  0
   -2.6040    7.7780    0.6100 H   0  0  0  0  0  0  0  0  0  0  0  0
   -0.9010    7.9900    0.4120 H   0  0  0  0  0  0  0  0  0  0  0  0
   -5.4920    2.7790   -6.2120 H   0  0  0  0  0  0  0  0  0  0  0  0
   -5.8310    3.1470  -10.2640 H   0  0  0  0  0  0  0  0  0  0  0  0
   -3.6270    1.2580   -5.2550 H   0  0  0  0  0  0  0  0  0  0  0  0
   -0.6390    1.3610   -5.7520 H   0  0  0  0  0  0  0  0  0  0  0  0
   -0.4100   -0.9870   -5.7400 H   0  0  0  0  0  0  0  0  0  0  0  0
   -4.0380   -0.0860  -12.0600 H   0  0  0  0  0  0  0  0  0  0  0  0
    1.0300   -1.8460  -10.0410 H   0  0  0  0  0  0  0  0  0  0  0  0
    0.3270   -2.8850   -8.2420 H   0  0  0  0  0  0  0  0  0  0  0  0
   -1.0760   -1.1330  -11.9620 H   0  0  0  0  0  0  0  0  0  0  0  0
   -3.4690   -1.2390   -5.6900 H   0  0  0  0  0  0  0  0  0  0  0  0
   -2.3620   -2.5550   -6.0950 H   0  0  0  0  0  0  0  0  0  0  0  0
   -2.3160   -1.8310   -4.4880 H   0  0  0  0  0  0  0  0  0  0  0  0
   -2.2060    3.2750   -4.7470 H   0  0  0  0  0  0  0  0  0  0  0  0
   -3.5490    3.6000   -5.7750 H   0  0  0  0  0  0  0  0  0  0  0  0
   -6.8430    0.9540  -11.0380 H   0  0  0  0  0  0  0  0  0  0  0  0
   -8.0440    1.8830  -10.1520 H   0  0  0  0  0  0  0  0  0  0  0  0
   -7.2200    0.5260   -9.3700 H   0  0  0  0  0  0  0  0  0  0  0  0
   -1.4120    1.7430   -3.4480 H   0  0  0  0  0  0  0  0  0  0  0  0
   -0.5550    0.2070   -3.5650 H   0  0  0  0  0  0  0  0  0  0  0  0
   -2.3250    0.2360   -3.4610 H   0  0  0  0  0  0  0  0  0  0  0  0
   -7.5740    4.1340   -6.9570 H   0  0  0  0  0  0  0  0  0  0  0  0
   -7.5420    4.5880   -8.6650 H   0  0  0  0  0  0  0  0  0  0  0  0
   -8.4630    3.1590   -8.1360 H   0  0  0  0  0  0  0  0  0  0  0  0
   -0.1940   -2.8440    0.9400 H   0  0  0  0  0  0  0  0  0  0  0  0
   -6.1980    1.9140   -1.3930 H   0  0  0  0  0  0  0  0  0  0  0  0
   -5.0780    3.7990   -0.3930 H   0  0  0  0  0  0  0  0  0  0  0  0
   -6.2370   -0.4000   -2.0680 H   0  0  0  0  0  0  0  0  0  0  0  0
   -6.4750   -2.8250   -2.3970 H   0  0  0  0  0  0  0  0  0  0  0  0
   -4.9860   -2.8600   -3.3340 H   0  0  0  0  0  0  0  0  0  0  0  0
    0.7870    0.2740    1.5890 H   0  0  0  0  0  0  0  0  0  0  0  0
   -2.3590   -5.3020    1.8790 H   0  0  0  0  0  0  0  0  0  0  0  0
   -0.6330   -5.1060    1.7610 H   0  0  0  0  0  0  0  0  0  0  0  0
   -0.7570   -7.6250    0.7610 H   0  0  0  0  0  0  0  0  0  0  0  0
   -2.3170   -7.5810    1.6130 H   0  0  0  0  0  0  0  0  0  0  0  0
   -2.7510   -7.7250   -0.4610 H   0  0  0  0  0  0  0  0  0  0  0  0
   -4.2100   -7.2730   -1.2530 H   0  0  0  0  0  0  0  0  0  0  0  0
   -1.4460   -7.5630   -2.5310 H   0  0  0  0  0  0  0  0  0  0  0  0
   -2.8180   -6.8500   -3.3940 H   0  0  0  0  0  0  0  0  0  0  0  0
   -2.8930   -8.5250   -2.8210 H   0  0  0  0  0  0  0  0  0  0  0  0
   -1.0320   -8.3740    3.3010 H   0  0  0  0  0  0  0  0  0  0  0  0
   -0.8350   -6.6460    3.6490 H   0  0  0  0  0  0  0  0  0  0  0  0
   -6.0690   -5.8700   -0.4540 H   0  0  0  0  0  0  0  0  0  0  0  0
   -6.0220   -4.2110    0.1580 H   0  0  0  0  0  0  0  0  0  0  0  0
   -7.1720   -4.6550   -1.1080 H   0  0  0  0  0  0  0  0  0  0  0  0
   -5.3400   -6.4170   -2.8120 H   0  0  0  0  0  0  0  0  0  0  0  0
   -6.3230   -5.1500   -3.5050 H   0  0  0  0  0  0  0  0  0  0  0  0
   -4.5850   -5.1790   -3.8280 H   0  0  0  0  0  0  0  0  0  0  0  0
   -0.1110   -6.4890   -1.0530 H   0  0  0  0  0  0  0  0  0  0  0  0
    0.5410   -4.9450   -0.5040 H   0  0  0  0  0  0  0  0  0  0  0  0
   -0.4020   -5.0180   -1.9900 H   0  0  0  0  0  0  0  0  0  0  0  0
   -1.5040    2.7950    2.4170 H   0  0  0  0  0  0  0  0  0  0  0  0
   -0.0280    2.5770    1.4230 H   0  0  0  0  0  0  0  0  0  0  0  0
   -0.3570    1.5890    2.8580 H   0  0  0  0  0  0  0  0  0  0  0  0
   -0.0280  -14.0450    6.0190 H   0  0  0  0  0  0  0  0  0  0  0  0
    1.0060   -9.6300    3.6880 H   0  0  0  0  0  0  0  0  0  0  0  0
    0.8170  -12.7960    8.1260 H   0  0  0  0  0  0  0  0  0  0  0  0
   -0.6530  -11.9900    4.4320 H   0  0  0  0  0  0  0  0  0  0  0  0
    3.6270   -7.0510   10.8160 H   0  0  0  0  0  0  0  0  0  0  0  0
    4.1880   -4.8940    9.7810 H   0  0  0  0  0  0  0  0  0  0  0  0
    3.7300   -4.4920    7.4530 H   0  0  0  0  0  0  0  0  0  0  0  0
    2.7470   -9.2850   10.6520 H   0  0  0  0  0  0  0  0  0  0  0  0
    1.7550  -11.0890    9.3730 H   0  0  0  0  0  0  0  0  0  0  0  0
    3.5090   -4.2640    5.4780 H   0  0  0  0  0  0  0  0  0  0  0  0
    3.0310   -3.8490    3.1590 H   0  0  0  0  0  0  0  0  0  0  0  0
    1.7460   -5.5020    1.8450 H   0  0  0  0  0  0  0  0  0  0  0  0
    2.2990  -12.8250    4.0310 H   0  0  0  0  0  0  0  0  0  0  0  0
    1.2520  -12.0750    2.8240 H   0  0  0  0  0  0  0  0  0  0  0  0
    0.9020  -13.7110    3.3980 H   0  0  0  0  0  0  0  0  0  0  0  0
  1  2  2  0
  1  5  1  0
  1 36  1  0
  2  6  1  0
  2 28  1  0
  3  4  2  0
  3  7  1  0
  3 41  1  0
  4  8  1  0
  4 31  1  0
  5 14  2  0
  5156  1  0
  6 15  2  0
  6 27  1  0
  7 16  2  0
  7 38  1  0
  8 20  2  0
  8 22  1  0
  9 14  1  0
  9 17  2  0
  9157  1  0
 10 15  1  0
 10 18  2  0
 10 25  1  0
 11 16  1  0
 11 19  1  0
 11158  1  0
 11159  1  0
 12 17  1  0
 12 19  2  0
 12160  1  0
 13 18  1  0
 13 21  2  0
 13 23  1  0
 14 15  1  0
 16 20  1  0
 17 18  1  0
 19 21  1  0
 20 21  1  0
 22 23  2  0
 22 33  1  0
 23 24  1  0
 24 25  2  0
 24 37  1  0
 25 26  1  0
 26 27  2  0
 26161  1  0
 27 30  1  0
 28 29  1  0
 28 40  1  0
 28162  1  1
 29 30  1  0
 29163  1  0
 29164  1  0
 30 34  1  0
 31 32  1  0
 31165  1  0
 31166  1  0
 32 33  1  0
 32167  1  0
 32168  1  0
 33 39  1  0
 33169  1  1
 34 35  2  0
 34170  1  0
 36 72  1  0
 37171  1  0
 38172  1  0
 39173  1  0
 39174  1  0
 39175  1  0
 40176  1  0
 40177  1  0
 40178  1  0
 41179  1  0
 41180  1  0
 41181  1  0
 42 43  2  0
 42 46  1  0
 42 52  1  0
 43 47  1  0
 43 55  1  0
 44 45  1  0
 44 48  2  0
 44 56  1  0
 45 49  2  0
 45 59  1  0
 46 50  2  0
 46 60  1  0
 47 51  2  0
 47 63  1  0
 48 50  1  0
 48 71  1  0
 49 51  1  0
 49182  1  0
 50 51  1  0
 52 53  2  0
 52 62  1  0
 53 54  1  0
 53183  1  0
 54 55  2  0
 54184  1  0
 55 65  1  0
 56 57  2  0
 56 66  1  0
 57 58  1  0
 57185  1  0
 58 59  2  0
 58 68  1  0
 59186  1  0
 60 61  1  0
 60 69  1  0
 60187  1  6
 61 62  1  0
 61188  1  0
 61189  1  0
 62190  1  0
 62191  1  0
 63 64  1  0
 63192  1  0
 63193  1  0
 64 65  1  0
 64194  1  0
 64195  1  0
 65 70  1  1
 65 72  1  0
 66 67  2  0
 66196  1  0
 68197  1  0
 69 95  1  0
 69198  1  0
 69199  1  0
 70120  1  0
 70200  1  0
 70201  1  0
 71202  1  0
 71203  1  0
 71204  1  0
 72205  1  0
 72206  1  0
 73 74  2  0
 73 76  1  0
 73 82  1  0
 74 77  1  0
 74 85  1  0
 75 78  2  0
 75 79  1  0
 75 98  1  0
 76 80  2  0
 76 86  1  0
 77 81  2  0
 77 89  1  0
 78 80  1  0
 78207  1  0
 79 81  1  0
 79 96  1  0
 79208  1  6
 80 81  1  0
 82 83  2  0
 82 88  1  0
 83 84  1  0
 83 92  1  0
 84 85  2  0
 84 91  1  0
 85 93  1  0
 86 87  1  0
 86 95  1  0
 86209  1  1
 87 88  1  0
 87 97  1  0
 87210  1  6
 88 94  1  0
 88211  1  6
 89 90  2  0
 89212  1  0
 91213  1  0
 92214  1  0
 93215  1  0
 94216  1  0
 94217  1  0
 94218  1  0
 95219  1  0
 95220  1  0
 96221  1  0
 96222  1  0
 96223  1  0
 97224  1  0
 97225  1  0
 97226  1  0
 98227  1  0
 98228  1  0
 98229  1  0
 99100  2  0
 99102  1  0
 99108  1  0
100103  1  0
100111  1  0
101104  2  0
101105  1  0
101124  1  0
102106  2  0
102117  1  0
103107  2  0
103230  1  0
104106  1  0
104119  1  0
105107  1  0
105122  1  1
105129  1  0
106107  1  0
108109  2  0
108112  1  0
109110  1  0
109115  1  0
110111  2  0
110130  1  0
111121  1  0
112113  2  0
112116  1  0
113114  1  0
113231  1  0
114115  2  0
114232  1  0
115120  1  0
116117  2  0
116233  1  0
117118  1  0
118119  1  0
118234  1  0
118235  1  0
119127  1  1
119128  1  0
121236  1  0
122123  1  0
122237  1  0
122238  1  0
123126  1  0
123239  1  0
123240  1  0
124125  1  0
124241  1  0
124242  1  0
125243  1  0
125244  1  0
125245  1  0
126154  1  0
126246  1  0
126247  1  0
127248  1  0
127249  1  0
127250  1  0
128251  1  0
128252  1  0
128253  1  0
129254  1  0
129255  1  0
129256  1  0
130257  1  0
130258  1  0
130259  1  0
131132  2  0
131134  1  0
131140  1  0
132135  1  0
132143  1  0
133136  2  0
133137  1  0
133260  1  0
134138  2  0
134149  1  0
135139  2  0
135261  1  0
136138  1  0
136262  1  0
137139  1  0
137155  1  0
137263  1  6
138139  1  0
140141  2  0
140144  1  0
141142  1  0
141147  1  0
142143  2  0
142150  1  0
143153  1  0
144145  2  0
144148  1  0
145146  1  0
145264  1  0
146147  2  0
146265  1  0
147266  1  0
148149  2  0
148267  1  0
149268  1  0
150151  2  0
150269  1  0
151152  1  0
151270  1  0
152153  2  0
152271  1  0
153154  1  0
155272  1  0
155273  1  0
155274  1  0
M  END
