
     RDKit          3D

214238  0  0  0  0  0  0  0  0999 V2000
   -0.7840    2.9160   -3.8440 C   0  0  0  0  0  0  0  0  0  0  0  0
    0.3930    3.7300   -3.7940 C   0  0  0  0  0  0  0  0  0  0  0  0
   -0.2870    5.1860    4.2260 C   0  0  0  0  0  0  0  0  0  0  0  0
   -1.5880    2.7350   -2.6640 C   0  0  0  0  0  0  0  0  0  0  0  0
    0.7350    5.7630    3.5820 C   0  0  0  0  0  0  0  0  0  0  0  0
    0.7530    4.3180   -2.5760 C   0  0  0  0  0  0  0  0  0  0  0  0
   -1.1160    4.2570    3.3120 C   0  0  1  0  0  0  0  0  0  0  0  0
    1.5280    5.8370    1.2240 C   0  0  0  0  0  0  0  0  0  0  0  0
    1.3580    5.4050   -0.0810 C   0  0  0  0  0  0  0  0  0  0  0  0
   -1.9330    3.5890   -0.1310 C   0  0  1  0  0  0  0  0  0  0  0  0
    0.6100    5.4000    2.1870 C   0  0  0  0  0  0  0  0  0  0  0  0
   -1.2450    3.4150   -1.4960 C   0  0  0  0  0  0  0  0  0  0  0  0
   -0.5350    4.6010    1.9510 C   0  0  0  0  0  0  0  0  0  0  0  0
   -0.0880    4.1540   -1.4970 C   0  0  0  0  0  0  0  0  0  0  0  0
    0.1740    4.6750   -0.2860 C   0  0  0  0  0  0  0  0  0  0  0  0
   -0.8120    4.3070    0.6360 C   0  0  0  0  0  0  0  0  0  0  0  0
    1.9200    5.0540   -2.3280 C   0  0  0  0  0  0  0  0  0  0  0  0
    2.2260    5.6030   -1.1130 N   0  0  0  0  0  0  0  0  0  0  0  0
   -1.1230    2.3140   -5.0800 C   0  0  0  0  0  0  0  0  0  0  0  0
   -0.3300    2.5750   -6.2130 C   0  0  0  0  0  0  0  0  0  0  0  0
    0.7990    3.4100   -6.1580 C   0  0  0  0  0  0  0  0  0  0  0  0
    1.1820    3.9820   -4.9370 C   0  0  0  0  0  0  0  0  0  0  0  0
    2.3290    4.9790   -4.8210 C   0  0  0  0  0  0  0  0  0  0  0  0
    2.9540    5.0860   -3.4190 C   0  0  0  0  0  0  0  0  0  0  0  0
   -2.7940    1.8320   -2.7040 C   0  0  0  0  0  0  0  0  0  0  0  0
   -2.6780    0.7680   -3.8060 C   0  0  1  0  0  0  0  0  0  0  0  0
   -2.3990    1.4750   -5.1510 C   0  0  2  0  0  0  0  0  0  0  0  0
    1.8760    6.6300    3.9990 C   0  0  0  0  0  0  0  0  0  0  0  0
    2.4200    7.4700    2.9110 N   0  0  0  0  0  0  0  0  0  0  0  0
    2.6960    6.6660    1.6890 C   0  0  0  0  0  0  0  0  0  0  0  0
   -2.5100    0.5350   -6.3400 C   0  0  0  0  0  0  0  0  0  0  0  0
   -2.7810   -0.6630   -6.2820 O   0  0  0  0  0  0  0  0  0  0  0  0
    1.6580    3.6990   -7.6980 S   0  0  0  0  0  0  0  0  0  0  0  0
   -3.1890    4.4600   -0.3940 C   0  0  0  0  0  0  0  0  0  0  0  0
    1.5600    8.6160    2.6260 C   0  0  0  0  0  0  0  0  0  0  0  0
   -1.6370   -0.2980   -3.4310 C   0  0  0  0  0  0  0  0  0  0  0  0
   -0.7500    2.8240    3.7840 C   0  0  0  0  0  0  0  0  0  0  0  0
   -2.5880    4.5660    3.5060 C   0  0  0  0  0  0  0  0  0  0  0  0
    5.5690   -1.4180    2.0230 C   0  0  0  0  0  0  0  0  0  0  0  0
    5.8950   -0.8330    3.2780 C   0  0  0  0  0  0  0  0  0  0  0  0
    1.7000   -0.9310    7.0980 C   0  0  0  0  0  0  0  0  0  0  0  0
    4.2380   -1.9240    1.7750 C   0  0  0  0  0  0  0  0  0  0  0  0
    0.8050   -1.4960    6.2180 N   0  0  0  0  0  0  0  0  0  0  0  0
    4.9060   -0.7970    4.3120 C   0  0  0  0  0  0  0  0  0  0  0  0
    2.8910   -0.7720    6.4290 C   0  0  0  0  0  0  0  0  0  0  0  0
    1.8320   -2.2350    2.6960 C   0  0  0  0  0  0  0  0  0  0  0  0
    0.9120   -2.0920    3.7550 C   0  0  0  0  0  0  0  0  0  0  0  0
    3.2150   -1.8530    2.7930 C   0  0  0  0  0  0  0  0  0  0  0  0
    1.4020   -1.6710    4.9870 C   0  0  0  0  0  0  0  0  0  0  0  0
    3.6150   -1.3140    4.0380 C   0  0  0  0  0  0  0  0  0  0  0  0
    2.7170   -1.2610    5.1190 C   0  0  0  0  0  0  0  0  0  0  0  0
    6.6010   -1.4770    1.0590 C   0  0  0  0  0  0  0  0  0  0  0  0
    7.8590   -0.9570    1.3160 C   0  0  0  0  0  0  0  0  0  0  0  0
    8.1870   -0.3610    2.4650 N   0  0  0  0  0  0  0  0  0  0  0  0
    7.2140   -0.3270    3.3940 C   0  0  0  0  0  0  0  0  0  0  0  0
    5.2410   -0.2110    5.6980 C   0  0  0  0  0  0  0  0  0  0  0  0
    4.1870   -0.1950    6.8400 C   0  0  0  0  0  0  0  0  0  0  0  0
   -0.5480   -2.1870    3.5610 C   0  0  0  0  0  0  0  0  0  0  0  0
   -1.1280   -3.2350    3.8290 O   0  0  0  0  0  0  0  0  0  0  0  0
   -1.2590   -0.9540    2.9990 C   0  0  0  0  0  0  0  0  0  0  0  0
    7.6610    0.3170    4.5030 O   0  0  0  0  0  0  0  0  0  0  0  0
    1.3980   -2.7810    1.5200 O   0  0  0  0  0  0  0  0  0  0  0  0
   -0.7600    0.3480    3.6250 C   0  0  0  0  0  0  0  0  0  0  0  0
   -1.3790    1.6270    3.0580 C   0  0  0  0  0  0  0  0  0  0  0  0
    3.9030   -2.5530    0.4140 C   0  0  0  0  0  0  0  0  0  0  0  0
    9.4390   -3.4790   -5.5370 C   0  0  0  0  0  0  0  0  0  0  0  0
    9.1410   -2.4780   -4.5630 C   0  0  0  0  0  0  0  0  0  0  0  0
    1.5320   -2.8710   -2.0710 C   0  0  0  0  0  0  0  0  0  0  0  0
    8.4480   -4.3730   -5.9960 C   0  0  0  0  0  0  0  0  0  0  0  0
    1.4910   -3.7930   -3.2750 C   0  0  2  0  0  0  0  0  0  0  0  0
    2.7550   -2.3590   -1.8190 C   0  0  0  0  0  0  0  0  0  0  0  0
    7.8060   -2.3910   -4.0350 C   0  0  0  0  0  0  0  0  0  0  0  0
    3.6050   -4.6710   -4.5680 C   0  0  0  0  0  0  0  0  0  0  0  0
    5.9080   -5.0470   -5.8290 C   0  0  1  0  0  0  0  0  0  0  0  0
    5.0200   -2.5590   -3.1810 C   0  0  0  0  0  0  0  0  0  0  0  0
    2.9530   -3.8260   -3.6520 C   0  0  0  0  0  0  0  0  0  0  0  0
    3.6600   -2.8410   -2.8920 C   0  0  0  0  0  0  0  0  0  0  0  0
    7.1660   -4.2670   -5.4930 C   0  0  0  0  0  0  0  0  0  0  0  0
    4.9330   -4.3980   -4.8550 C   0  0  0  0  0  0  0  0  0  0  0  0
    6.8870   -3.3090   -4.5400 C   0  0  0  0  0  0  0  0  0  0  0  0
    5.5810   -3.3830   -4.1640 C   0  0  0  0  0  0  0  0  0  0  0  0
    7.2660   -1.4970   -3.0720 C   0  0  0  0  0  0  0  0  0  0  0  0
    5.9100   -1.5790   -2.6570 C   0  0  0  0  0  0  0  0  0  0  0  0
   10.7450   -3.5390   -6.0290 C   0  0  0  0  0  0  0  0  0  0  0  0
   11.7510   -2.7180   -5.6510 N   0  0  0  0  0  0  0  0  0  0  0  0
   11.4460   -1.7810   -4.7330 C   0  0  0  0  0  0  0  0  0  0  0  0
   10.1860   -1.6240   -4.1720 C   0  0  0  0  0  0  0  0  0  0  0  0
    2.9430   -5.8890   -5.0870 C   0  0  0  0  0  0  0  0  0  0  0  0
    3.4750   -6.6630   -5.8700 O   0  0  0  0  0  0  0  0  0  0  0  0
    0.2820   -2.7480   -1.2780 C   0  0  0  0  0  0  0  0  0  0  0  0
    0.0360   -1.8710   -0.4620 O   0  0  0  0  0  0  0  0  0  0  0  0
    0.5560   -3.1930   -4.3480 C   0  0  0  0  0  0  0  0  0  0  0  0
    0.1840   -4.1430   -5.4860 C   0  0  0  0  0  0  0  0  0  0  0  0
    3.1990   -1.6100   -0.5890 C   0  0  0  0  0  0  0  0  0  0  0  0
    5.5420   -4.8310   -7.2960 C   0  0  0  0  0  0  0  0  0  0  0  0
   -0.9570   -3.5900   -6.3280 C   0  0  0  0  0  0  0  0  0  0  0  0
   -8.5410   -2.4770    1.8260 C   0  0  0  0  0  0  0  0  0  0  0  0
   -9.4480   -1.8840    2.7230 C   0  0  0  0  0  0  0  0  0  0  0  0
   -6.1860    1.9290    1.4690 C   0  0  0  0  0  0  0  0  0  0  0  0
   -7.0180    2.5010    2.4430 C   0  0  0  0  0  0  0  0  0  0  0  0
   -7.4170   -1.7160    1.3440 C   0  0  0  0  0  0  0  0  0  0  0  0
   -9.2570   -0.5380    3.0820 C   0  0  0  0  0  0  0  0  0  0  0  0
   -6.3370    0.5740    1.1320 C   0  0  0  0  0  0  0  0  0  0  0  0
   -7.9420    1.6200    3.0980 C   0  0  0  0  0  0  0  0  0  0  0  0
   -7.2860   -0.3140    1.6910 C   0  0  0  0  0  0  0  0  0  0  0  0
   -8.1680    0.2640    2.6440 C   0  0  0  0  0  0  0  0  0  0  0  0
   -8.8050   -3.8170    1.4270 C   0  0  0  0  0  0  0  0  0  0  0  0
   -9.8670   -4.5580    1.9730 C   0  0  0  0  0  0  0  0  0  0  0  0
  -10.7130   -3.9800    2.9000 C   0  0  0  0  0  0  0  0  0  0  0  0
  -10.5070   -2.6560    3.2640 C   0  0  0  0  0  0  0  0  0  0  0  0
   -5.1750    2.6900    0.8370 C   0  0  0  0  0  0  0  0  0  0  0  0
   -4.9800    4.0280    1.1560 C   0  0  0  0  0  0  0  0  0  0  0  0
   -5.8510    4.6420    2.0450 C   0  0  0  0  0  0  0  0  0  0  0  0
   -6.8550    3.9000    2.6650 C   0  0  0  0  0  0  0  0  0  0  0  0
   -6.3640   -2.5890    0.5910 C   0  0  1  0  0  0  0  0  0  0  0  0
   -7.1130   -3.5090   -0.4160 C   0  0  2  0  0  0  0  0  0  0  0  0
   -7.9600   -4.5020    0.3840 C   0  0  0  0  0  0  0  0  0  0  0  0
   -7.7230    4.5790    3.4760 O   0  0  0  0  0  0  0  0  0  0  0  0
   -3.9380    4.8160    0.7600 O   0  0  0  0  0  0  0  0  0  0  0  0
  -10.2540    0.0630    3.8270 O   0  0  0  0  0  0  0  0  0  0  0  0
   -6.2210   -4.3020   -1.3750 C   0  0  0  0  0  0  0  0  0  0  0  0
   -5.1090   -1.9770   -0.0360 C   0  0  0  0  0  0  0  0  0  0  0  0
   -8.6320    2.1120    4.3600 C   0  0  0  0  0  0  0  0  0  0  0  0
   -0.4640    5.2760    5.2890 H   0  0  0  0  0  0  0  0  0  0  0  0
   -2.1560    2.6240    0.3220 H   0  0  0  0  0  0  0  0  0  0  0  0
   -0.5910    2.1490   -7.1790 H   0  0  0  0  0  0  0  0  0  0  0  0
    3.1380    4.7300   -5.5160 H   0  0  0  0  0  0  0  0  0  0  0  0
    1.9340    5.9630   -5.1100 H   0  0  0  0  0  0  0  0  0  0  0  0
    3.5550    6.0000   -3.3480 H   0  0  0  0  0  0  0  0  0  0  0  0
    3.6290    4.2350   -3.2590 H   0  0  0  0  0  0  0  0  0  0  0  0
   -2.9270    1.3350   -1.7350 H   0  0  0  0  0  0  0  0  0  0  0  0
   -3.6830    2.4470   -2.8860 H   0  0  0  0  0  0  0  0  0  0  0  0
   -3.6450    0.2520   -3.8720 H   0  0  0  0  0  0  0  0  0  0  0  0
   -3.2140    2.1960   -5.3210 H   0  0  0  0  0  0  0  0  0  0  0  0
    1.5960    7.2540    4.8580 H   0  0  0  0  0  0  0  0  0  0  0  0
    2.6870    5.9800    4.3520 H   0  0  0  0  0  0  0  0  0  0  0  0
    3.5320    5.9870    1.9040 H   0  0  0  0  0  0  0  0  0  0  0  0
    3.0370    7.3340    0.8900 H   0  0  0  0  0  0  0  0  0  0  0  0
   -2.4160    1.0060   -7.3310 H   0  0  0  0  0  0  0  0  0  0  0  0
    1.8120    5.0220   -7.5490 H   0  0  0  0  0  0  0  0  0  0  0  0
   -2.8800    5.4150   -0.8390 H   0  0  0  0  0  0  0  0  0  0  0  0
   -3.8490    4.0050   -1.1430 H   0  0  0  0  0  0  0  0  0  0  0  0
    2.0060    9.2470    1.8480 H   0  0  0  0  0  0  0  0  0  0  0  0
    0.5520    8.3350    2.2960 H   0  0  0  0  0  0  0  0  0  0  0  0
    1.4600    9.2460    3.5180 H   0  0  0  0  0  0  0  0  0  0  0  0
   -0.6150    0.0920   -3.3980 H   0  0  0  0  0  0  0  0  0  0  0  0
   -1.8600   -0.7210   -2.4470 H   0  0  0  0  0  0  0  0  0  0  0  0
   -1.6530   -1.1220   -4.1460 H   0  0  0  0  0  0  0  0  0  0  0  0
   -1.0070    2.7310    4.8510 H   0  0  0  0  0  0  0  0  0  0  0  0
    0.3430    2.7040    3.7340 H   0  0  0  0  0  0  0  0  0  0  0  0
   -2.8690    4.5520    4.5670 H   0  0  0  0  0  0  0  0  0  0  0  0
   -3.1980    3.8100    3.0160 H   0  0  0  0  0  0  0  0  0  0  0  0
   -2.8540    5.5520    3.1080 H   0  0  0  0  0  0  0  0  0  0  0  0
    1.4040   -0.6920    8.1130 H   0  0  0  0  0  0  0  0  0  0  0  0
   -0.1520   -1.7450    6.4370 H   0  0  0  0  0  0  0  0  0  0  0  0
    6.4660   -1.9370    0.0900 H   0  0  0  0  0  0  0  0  0  0  0  0
    8.6500   -1.0190    0.5740 H   0  0  0  0  0  0  0  0  0  0  0  0
    5.5470    0.8330    5.5520 H   0  0  0  0  0  0  0  0  0  0  0  0
    6.1050   -0.7660    6.0870 H   0  0  0  0  0  0  0  0  0  0  0  0
    4.5820   -0.7470    7.7030 H   0  0  0  0  0  0  0  0  0  0  0  0
    4.0330    0.8410    7.1710 H   0  0  0  0  0  0  0  0  0  0  0  0
   -1.1330   -0.9440    1.9120 H   0  0  0  0  0  0  0  0  0  0  0  0
   -2.3280   -1.0640    3.2130 H   0  0  0  0  0  0  0  0  0  0  0  0
    8.5350    0.6020    4.1790 H   0  0  0  0  0  0  0  0  0  0  0  0
    0.4870   -2.4860    1.3070 H   0  0  0  0  0  0  0  0  0  0  0  0
   -0.9330    0.3120    4.7080 H   0  0  0  0  0  0  0  0  0  0  0  0
    0.3230    0.4300    3.4820 H   0  0  0  0  0  0  0  0  0  0  0  0
   -1.1620    1.6730    1.9880 H   0  0  0  0  0  0  0  0  0  0  0  0
   -2.4650    1.6120    3.1900 H   0  0  0  0  0  0  0  0  0  0  0  0
    3.3190   -3.4650    0.5790 H   0  0  0  0  0  0  0  0  0  0  0  0
    4.8010   -2.9730   -0.0490 H   0  0  0  0  0  0  0  0  0  0  0  0
    8.6770   -5.1250   -6.7470 H   0  0  0  0  0  0  0  0  0  0  0  0
    1.1590   -4.7870   -2.9560 H   0  0  0  0  0  0  0  0  0  0  0  0
    6.0540   -6.1060   -5.5830 H   0  0  0  0  0  0  0  0  0  0  0  0
    7.8910   -0.7240   -2.6320 H   0  0  0  0  0  0  0  0  0  0  0  0
    5.5620   -0.8390   -1.9460 H   0  0  0  0  0  0  0  0  0  0  0  0
   11.0340   -4.2800   -6.7700 H   0  0  0  0  0  0  0  0  0  0  0  0
   12.2700   -1.1330   -4.4440 H   0  0  0  0  0  0  0  0  0  0  0  0
   10.0390   -0.8370   -3.4450 H   0  0  0  0  0  0  0  0  0  0  0  0
    1.9380   -6.1100   -4.6960 H   0  0  0  0  0  0  0  0  0  0  0  0
   -0.4660   -3.5320   -1.4880 H   0  0  0  0  0  0  0  0  0  0  0  0
   -0.3800   -2.9090   -3.8610 H   0  0  0  0  0  0  0  0  0  0  0  0
    0.9820   -2.2730   -4.7670 H   0  0  0  0  0  0  0  0  0  0  0  0
    1.0450   -4.3030   -6.1410 H   0  0  0  0  0  0  0  0  0  0  0  0
   -0.1250   -5.1100   -5.0770 H   0  0  0  0  0  0  0  0  0  0  0  0
    3.8400   -0.7640   -0.8480 H   0  0  0  0  0  0  0  0  0  0  0  0
    2.3410   -1.1290   -0.1100 H   0  0  0  0  0  0  0  0  0  0  0  0
    4.5690   -5.2560   -7.5500 H   0  0  0  0  0  0  0  0  0  0  0  0
    5.5010   -3.7640   -7.5490 H   0  0  0  0  0  0  0  0  0  0  0  0
    6.2870   -5.2950   -7.9490 H   0  0  0  0  0  0  0  0  0  0  0  0
   -1.2150   -4.2930   -7.1240 H   0  0  0  0  0  0  0  0  0  0  0  0
   -1.8530   -3.4240   -5.7200 H   0  0  0  0  0  0  0  0  0  0  0  0
   -0.6770   -2.6370   -6.7890 H   0  0  0  0  0  0  0  0  0  0  0  0
   -5.7040    0.2380    0.3260 H   0  0  0  0  0  0  0  0  0  0  0  0
  -10.0330   -5.5880    1.6650 H   0  0  0  0  0  0  0  0  0  0  0  0
  -11.5270   -4.5510    3.3370 H   0  0  0  0  0  0  0  0  0  0  0  0
  -11.1730   -2.2330    4.0140 H   0  0  0  0  0  0  0  0  0  0  0  0
   -4.5090    2.1950    0.1410 H   0  0  0  0  0  0  0  0  0  0  0  0
   -5.7110    5.6940    2.2810 H   0  0  0  0  0  0  0  0  0  0  0  0
   -5.9510   -3.2350    1.3840 H   0  0  0  0  0  0  0  0  0  0  0  0
   -7.7780   -2.8860   -1.0310 H   0  0  0  0  0  0  0  0  0  0  0  0
   -8.6110   -5.0530   -0.3060 H   0  0  0  0  0  0  0  0  0  0  0  0
   -7.3180   -5.2330    0.8890 H   0  0  0  0  0  0  0  0  0  0  0  0
   -7.7150    5.5220    3.2360 H   0  0  0  0  0  0  0  0  0  0  0  0
  -11.0990   -0.1570    3.3950 H   0  0  0  0  0  0  0  0  0  0  0  0
   -6.8160   -5.0100   -1.9650 H   0  0  0  0  0  0  0  0  0  0  0  0
   -5.7140   -3.6430   -2.0860 H   0  0  0  0  0  0  0  0  0  0  0  0
   -5.4660   -4.8780   -0.8300 H   0  0  0  0  0  0  0  0  0  0  0  0
   -5.3500   -1.3590   -0.9040 H   0  0  0  0  0  0  0  0  0  0  0  0
   -4.5310   -1.4090    0.6980 H   0  0  0  0  0  0  0  0  0  0  0  0
   -4.4190   -2.7560   -0.3780 H   0  0  0  0  0  0  0  0  0  0  0  0
   -9.5930    2.5810    4.1280 H   0  0  0  0  0  0  0  0  0  0  0  0
   -8.7610    1.2980    5.0830 H   0  0  0  0  0  0  0  0  0  0  0  0
   -8.0020    2.8150    4.9140 H   0  0  0  0  0  0  0  0  0  0  0  0
  1  2  2  0
  1  4  1  0
  1 19  1  0
  2  6  1  0
  2 22  1  0
  3  5  2  0
  3  7  1  0
  3124  1  0
  4 12  2  0
  4 25  1  0
  5 11  1  0
  5 28  1  0
  6 14  2  0
  6 17  1  0
  7 13  1  0
  7 37  1  1
  7 38  1  0
  8  9  1  0
  8 11  2  0
  8 30  1  0
  9 15  2  0
  9 18  1  0
 10 12  1  0
 10 16  1  0
 10 34  1  0
 10125  1  1
 11 13  1  0
 12 14  1  0
 13 16  2  0
 14 15  1  0
 15 16  1  0
 17 18  2  0
 17 24  1  0
 19 20  2  0
 19 27  1  0
 20 21  1  0
 20126  1  0
 21 22  2  0
 21 33  1  0
 22 23  1  0
 23 24  1  0
 23127  1  0
 23128  1  0
 24129  1  0
 24130  1  0
 25 26  1  0
 25131  1  0
 25132  1  0
 26 27  1  0
 26 36  1  0
 26133  1  6
 27 31  1  0
 27134  1  6
 28 29  1  0
 28135  1  0
 28136  1  0
 29 30  1  0
 29 35  1  0
 30137  1  0
 30138  1  0
 31 32  2  0
 31139  1  0
 33140  1  0
 34119  1  0
 34141  1  0
 34142  1  0
 35143  1  0
 35144  1  0
 35145  1  0
 36146  1  0
 36147  1  0
 36148  1  0
 37 64  1  0
 37149  1  0
 37150  1  0
 38151  1  0
 38152  1  0
 38153  1  0
 39 40  1  0
 39 42  2  0
 39 52  1  0
 40 44  2  0
 40 55  1  0
 41 43  1  0
 41 45  2  0
 41154  1  0
 42 48  1  0
 42 65  1  0
 43 49  1  0
 43155  1  0
 44 50  1  0
 44 56  1  0
 45 51  1  0
 45 57  1  0
 46 47  1  0
 46 48  2  0
 46 62  1  0
 47 49  2  0
 47 58  1  0
 48 50  1  0
 49 51  1  0
 50 51  2  0
 52 53  2  0
 52156  1  0
 53 54  1  0
 53157  1  0
 54 55  2  0
 55 61  1  0
 56 57  1  0
 56158  1  0
 56159  1  0
 57160  1  0
 57161  1  0
 58 59  2  0
 58 60  1  0
 60 63  1  0
 60162  1  0
 60163  1  0
 61164  1  0
 62165  1  0
 63 64  1  0
 63166  1  0
 63167  1  0
 64168  1  0
 64169  1  0
 65 94  1  0
 65170  1  0
 65171  1  0
 66 67  2  0
 66 69  1  0
 66 84  1  0
 67 72  1  0
 67 87  1  0
 68 70  1  0
 68 71  2  0
 68 90  1  0
 69 78  2  0
 69172  1  0
 70 76  1  0
 70 92  1  0
 70173  1  1
 71 77  1  0
 71 94  1  0
 72 80  2  0
 72 82  1  0
 73 76  2  0
 73 79  1  0
 73 88  1  0
 74 78  1  0
 74 79  1  0
 74 95  1  0
 74174  1  1
 75 77  2  0
 75 81  1  0
 75 83  1  0
 76 77  1  0
 78 80  1  0
 79 81  2  0
 80 81  1  0
 82 83  2  0
 82175  1  0
 83176  1  0
 84 85  2  0
 84177  1  0
 85 86  1  0
 86 87  2  0
 86178  1  0
 87179  1  0
 88 89  2  0
 88180  1  0
 90 91  2  0
 90181  1  0
 92 93  1  0
 92182  1  0
 92183  1  0
 93 96  1  0
 93184  1  0
 93185  1  0
 94186  1  0
 94187  1  0
 95188  1  0
 95189  1  0
 95190  1  0
 96191  1  0
 96192  1  0
 96193  1  0
 97 98  1  0
 97101  2  0
 97107  1  0
 98102  2  0
 98110  1  0
 99100  2  0
 99103  1  0
 99111  1  0
100104  1  0
100114  1  0
101105  1  0
101115  1  0
102106  1  0
102120  1  0
103105  2  0
103194  1  0
104106  2  0
104123  1  0
105106  1  0
107108  2  0
107117  1  0
108109  1  0
108195  1  0
109110  2  0
109196  1  0
110197  1  0
111112  2  0
111198  1  0
112113  1  0
112119  1  0
113114  2  0
113199  1  0
114118  1  0
115116  1  0
115122  1  0
115200  1  1
116117  1  0
116121  1  0
116201  1  6
117202  1  0
117203  1  0
118204  1  0
120205  1  0
121206  1  0
121207  1  0
121208  1  0
122209  1  0
122210  1  0
122211  1  0
123212  1  0
123213  1  0
123214  1  0
M  END
