
     RDKit          3D

198224  0  0  0  0  0  0  0  0999 V2000
   -3.8560    3.4790   -0.8110 C   0  0  0  0  0  0  0  0  0  0  0  0
   -4.0450    4.2640   -1.9530 C   0  0  0  0  0  0  0  0  0  0  0  0
   -4.4470   -0.4930   -3.8710 C   0  0  0  0  0  0  0  0  0  0  0  0
   -5.0290    0.3560   -4.8230 C   0  0  0  0  0  0  0  0  0  0  0  0
   -3.9810    2.0480   -0.9170 C   0  0  0  0  0  0  0  0  0  0  0  0
   -4.5180    3.6820   -3.1220 C   0  0  0  0  0  0  0  0  0  0  0  0
   -4.0120    0.0890   -2.6330 C   0  0  0  0  0  0  0  0  0  0  0  0
   -5.0630    1.7390   -4.5280 C   0  0  0  0  0  0  0  0  0  0  0  0
   -4.1960    1.4500   -2.2370 C   0  0  0  0  0  0  0  0  0  0  0  0
   -4.6200    2.2940   -3.2910 C   0  0  0  0  0  0  0  0  0  0  0  0
   -3.5610    4.1790    0.3800 C   0  0  0  0  0  0  0  0  0  0  0  0
   -3.1560    5.5390    0.3720 C   0  0  0  0  0  0  0  0  0  0  0  0
   -3.1590    6.2540   -0.8480 C   0  0  0  0  0  0  0  0  0  0  0  0
   -3.7610    5.6350   -1.9440 C   0  0  0  0  0  0  0  0  0  0  0  0
   -4.3420   -1.8760   -4.1970 C   0  0  0  0  0  0  0  0  0  0  0  0
   -4.8170   -2.4120   -5.3930 C   0  0  0  0  0  0  0  0  0  0  0  0
   -5.4170   -1.5700   -6.3110 C   0  0  0  0  0  0  0  0  0  0  0  0
   -5.5240   -0.2060   -6.0300 C   0  0  0  0  0  0  0  0  0  0  0  0
   -3.7260    3.5280    1.6000 C   0  0  0  0  0  0  0  0  0  0  0  0
   -3.4150    4.2210    2.7540 C   0  0  0  0  0  0  0  0  0  0  0  0
   -2.9360    5.4700    2.8080 N   0  0  0  0  0  0  0  0  0  0  0  0
   -2.8210    6.0970    1.6150 C   0  0  0  0  0  0  0  0  0  0  0  0
   -3.9370    1.2230    0.4410 C   0  0  1  0  0  0  0  0  0  0  0  0
   -4.3980    2.1920    1.5900 C   0  0  0  0  0  0  0  0  0  0  0  0
   -5.5670    2.6370   -5.5950 C   0  0  0  0  0  0  0  0  0  0  0  0
   -6.5380    3.3630   -5.4180 O   0  0  0  0  0  0  0  0  0  0  0  0
   -3.7520   -2.7310   -3.2900 O   0  0  0  0  0  0  0  0  0  0  0  0
   -3.2450   -0.6950   -1.8010 O   0  0  0  0  0  0  0  0  0  0  0  0
   -3.6160    3.6880    3.9830 O   0  0  0  0  0  0  0  0  0  0  0  0
   -5.0750    0.0900    0.4610 C   0  0  0  0  0  0  0  0  0  0  0  0
   -4.7360   -1.3900    0.6860 C   0  0  0  0  0  0  0  0  0  0  0  0
   -2.5000    0.6690    0.7690 C   0  0  0  0  0  0  0  0  0  0  0  0
   -2.5950    7.6610   -0.9780 C   0  0  0  0  0  0  0  0  0  0  0  0
   -4.9520   -5.9510    4.0750 C   0  0  0  0  0  0  0  0  0  0  0  0
   -4.2560   -5.0990    3.1730 C   0  0  0  0  0  0  0  0  0  0  0  0
    0.7450  -11.2430   -0.3620 C   0  0  0  0  0  0  0  0  0  0  0  0
    0.7140   -9.8730   -0.7090 C   0  0  0  0  0  0  0  0  0  0  0  0
   -4.6580   -7.3270    4.1250 C   0  0  0  0  0  0  0  0  0  0  0  0
   -3.2740   -5.6690    2.3280 C   0  0  0  0  0  0  0  0  0  0  0  0
   -0.0820  -11.7990    0.6310 C   0  0  0  0  0  0  0  0  0  0  0  0
   -0.1660   -9.0020   -0.0300 C   0  0  0  0  0  0  0  0  0  0  0  0
   -3.4380   -9.2550    3.4050 N   0  0  0  0  0  0  0  0  0  0  0  0
   -1.9410  -11.1770    2.4460 C   0  0  1  0  0  0  0  0  0  0  0  0
   -2.0590   -7.5910    1.5600 C   0  0  0  0  0  0  0  0  0  0  0  0
   -3.6990   -7.9160    3.3160 C   0  0  0  0  0  0  0  0  0  0  0  0
   -3.0230   -7.0490    2.4130 C   0  0  0  0  0  0  0  0  0  0  0  0
   -0.9540  -10.9610    1.2930 C   0  0  0  0  0  0  0  0  0  0  0  0
   -2.5000   -9.7420    2.5700 C   0  0  0  0  0  0  0  0  0  0  0  0
   -0.9520   -9.6250    0.9380 C   0  0  0  0  0  0  0  0  0  0  0  0
   -1.8420   -8.9440    1.6790 C   0  0  0  0  0  0  0  0  0  0  0  0
   -0.3520   -7.5870   -0.1780 C   0  0  0  0  0  0  0  0  0  0  0  0
   -1.2990   -6.8680    0.6250 C   0  0  0  0  0  0  0  0  0  0  0  0
   -1.5550   -5.4860    0.5760 C   0  0  0  0  0  0  0  0  0  0  0  0
   -2.5350   -4.8830    1.4060 C   0  0  0  0  0  0  0  0  0  0  0  0
   -5.9380   -5.4130    4.9060 C   0  0  0  0  0  0  0  0  0  0  0  0
   -6.2210   -4.0510    4.8760 C   0  0  0  0  0  0  0  0  0  0  0  0
   -5.5170   -3.2140    4.0000 C   0  0  0  0  0  0  0  0  0  0  0  0
   -4.5360   -3.7120    3.1040 C   0  0  0  0  0  0  0  0  0  0  0  0
   -3.8290   -2.9560    2.1310 C   0  0  0  0  0  0  0  0  0  0  0  0
   -2.8160   -3.5190    1.3420 C   0  0  0  0  0  0  0  0  0  0  0  0
   -5.8450   -1.7750    4.1050 C   0  0  0  0  0  0  0  0  0  0  0  0
   -6.8960   -1.3670    3.6150 O   0  0  0  0  0  0  0  0  0  0  0  0
   -4.8560   -0.9130    4.8690 C   0  0  0  0  0  0  0  0  0  0  0  0
    1.6240  -12.0890   -0.9820 O   0  0  0  0  0  0  0  0  0  0  0  0
   -4.1230   -1.6210    1.9600 O   0  0  0  0  0  0  0  0  0  0  0  0
   -3.0390  -12.1800    2.1000 C   0  0  0  0  0  0  0  0  0  0  0  0
   -5.4830    0.3850    5.3490 C   0  0  0  0  0  0  0  0  0  0  0  0
   -1.2010  -11.5710    3.7270 C   0  0  0  0  0  0  0  0  0  0  0  0
    7.6480    1.5950    2.7190 C   0  0  0  0  0  0  0  0  0  0  0  0
    6.9940    1.4340    1.4770 C   0  0  0  0  0  0  0  0  0  0  0  0
   -1.5550    1.2890    3.5190 C   0  0  0  0  0  0  0  0  0  0  0  0
    6.8770    1.6710    3.9070 C   0  0  0  0  0  0  0  0  0  0  0  0
   -0.8850    1.2270    4.7400 C   0  0  0  0  0  0  0  0  0  0  0  0
   -0.8580    1.4170    2.3170 C   0  0  0  0  0  0  0  0  0  0  0  0
    5.5800    1.4040    1.4140 C   0  0  0  0  0  0  0  0  0  0  0  0
    1.0770    1.2970    6.0100 N   0  0  0  0  0  0  0  0  0  0  0  0
    2.4250    1.3820    6.0480 C   0  0  0  0  0  0  0  0  0  0  0  0
    1.3470    1.4420    1.1790 C   0  0  0  0  0  0  0  0  0  0  0  0
    2.7520    1.4060    1.2490 C   0  0  0  0  0  0  0  0  0  0  0  0
    4.6430    1.5230    5.0060 C   0  0  0  0  0  0  0  0  0  0  0  0
    0.4890    1.3070    4.8060 C   0  0  0  0  0  0  0  0  0  0  0  0
    0.5520    1.4230    2.3390 C   0  0  0  0  0  0  0  0  0  0  0  0
    5.4580    1.5590    3.8570 C   0  0  0  0  0  0  0  0  0  0  0  0
    3.2440    1.4410    4.9240 C   0  0  0  0  0  0  0  0  0  0  0  0
    4.8150    1.4720    2.5970 C   0  0  0  0  0  0  0  0  0  0  0  0
    3.3980    1.4370    2.5040 C   0  0  0  0  0  0  0  0  0  0  0  0
    1.2080    1.3820    3.5960 C   0  0  0  0  0  0  0  0  0  0  0  0
    2.6150    1.4230    3.6720 C   0  0  0  0  0  0  0  0  0  0  0  0
    4.9310    1.2870    0.1660 C   0  0  0  0  0  0  0  0  0  0  0  0
    3.5320    1.3220    0.0930 C   0  0  0  0  0  0  0  0  0  0  0  0
    9.0620    1.6700    2.7340 C   0  0  0  0  0  0  0  0  0  0  0  0
    9.7970    1.5260    1.5500 C   0  0  0  0  0  0  0  0  0  0  0  0
    9.1440    1.3450    0.3350 C   0  0  0  0  0  0  0  0  0  0  0  0
    7.7480    1.3040    0.2850 C   0  0  0  0  0  0  0  0  0  0  0  0
    7.0880    1.1330   -0.9330 C   0  0  0  0  0  0  0  0  0  0  0  0
    5.6960    1.1280   -0.9910 C   0  0  0  0  0  0  0  0  0  0  0  0
    7.6070    1.8330    5.2310 C   0  0  0  0  0  0  0  0  0  0  0  0
    8.9380    2.5590    5.0630 C   0  0  0  0  0  0  0  0  0  0  0  0
    9.8100    1.8600    4.0310 C   0  0  0  0  0  0  0  0  0  0  0  0
   -1.5220    1.6590    1.1320 O   0  0  0  0  0  0  0  0  0  0  0  0
    1.9510    4.2340   -4.3350 C   0  0  0  0  0  0  0  0  0  0  0  0
    1.4470    3.2940   -5.2960 C   0  0  0  0  0  0  0  0  0  0  0  0
    5.7420    1.5380   -4.9300 C   0  0  0  0  0  0  0  0  0  0  0  0
    3.2840    3.9940   -3.8940 C   0  0  0  0  0  0  0  0  0  0  0  0
    2.2290    2.2490   -5.8160 C   0  0  0  0  0  0  0  0  0  0  0  0
    5.4390    2.6170   -4.1800 C   0  0  0  0  0  0  0  0  0  0  0  0
    4.5710    1.1060   -5.8000 C   0  0  1  0  0  0  0  0  0  0  0  0
    4.0590    2.9820   -4.4480 C   0  0  0  0  0  0  0  0  0  0  0  0
    3.5360    2.1180   -5.4010 C   0  0  0  0  0  0  0  0  0  0  0  0
    1.0720    5.3130   -3.8580 C   0  0  0  0  0  0  0  0  0  0  0  0
   -0.2680    5.3090   -4.3260 C   0  0  0  0  0  0  0  0  0  0  0  0
   -0.7130    4.3630   -5.2500 C   0  0  0  0  0  0  0  0  0  0  0  0
    0.1320    3.3810   -5.7390 C   0  0  0  0  0  0  0  0  0  0  0  0
    1.3720    6.3970   -2.9550 C   0  0  0  0  0  0  0  0  0  0  0  0
    0.3760    7.2610   -2.4360 C   0  0  0  0  0  0  0  0  0  0  0  0
   -0.9340    7.1900   -2.8910 C   0  0  0  0  0  0  0  0  0  0  0  0
   -1.2140    6.2460   -3.8810 C   0  0  0  0  0  0  0  0  0  0  0  0
    4.9400    1.2030   -7.2640 C   0  0  0  0  0  0  0  0  0  0  0  0
    5.3590    0.2560   -7.9250 O   0  0  0  0  0  0  0  0  0  0  0  0
    2.7650    6.7700   -2.6390 C   0  0  0  0  0  0  0  0  0  0  0  0
    3.0570    7.3000   -1.5730 O   0  0  0  0  0  0  0  0  0  0  0  0
    0.6550    8.2330   -1.5060 O   0  0  0  0  0  0  0  0  0  0  0  0
    7.0450    0.7950   -4.9330 C   0  0  0  0  0  0  0  0  0  0  0  0
    6.8880   -0.6680   -4.5420 C   0  0  0  0  0  0  0  0  0  0  0  0
   -2.0390    8.0820   -2.3600 C   0  0  0  0  0  0  0  0  0  0  0  0
   -4.7690    4.3470   -3.9480 H   0  0  0  0  0  0  0  0  0  0  0  0
   -3.9510    6.2090   -2.8460 H   0  0  0  0  0  0  0  0  0  0  0  0
   -4.7320   -3.4690   -5.6150 H   0  0  0  0  0  0  0  0  0  0  0  0
   -5.8070   -1.9630   -7.2490 H   0  0  0  0  0  0  0  0  0  0  0  0
   -6.0000    0.4120   -6.7850 H   0  0  0  0  0  0  0  0  0  0  0  0
   -2.4780    7.1230    1.7020 H   0  0  0  0  0  0  0  0  0  0  0  0
   -4.3270    1.6860    2.5560 H   0  0  0  0  0  0  0  0  0  0  0  0
   -5.4700    2.4190    1.4720 H   0  0  0  0  0  0  0  0  0  0  0  0
   -5.0490    2.5750   -6.5690 H   0  0  0  0  0  0  0  0  0  0  0  0
   -4.0010   -3.6420   -3.5250 H   0  0  0  0  0  0  0  0  0  0  0  0
   -3.1420   -1.5670   -2.2330 H   0  0  0  0  0  0  0  0  0  0  0  0
   -3.2710    4.4200    4.5240 H   0  0  0  0  0  0  0  0  0  0  0  0
   -5.6840    0.1560   -0.4470 H   0  0  0  0  0  0  0  0  0  0  0  0
   -5.7870    0.3270    1.2640 H   0  0  0  0  0  0  0  0  0  0  0  0
   -5.6790   -1.9540    0.6560 H   0  0  0  0  0  0  0  0  0  0  0  0
   -4.1090   -1.7820   -0.1120 H   0  0  0  0  0  0  0  0  0  0  0  0
   -2.0690    0.1620   -0.0920 H   0  0  0  0  0  0  0  0  0  0  0  0
   -2.5530   -0.0820    1.5570 H   0  0  0  0  0  0  0  0  0  0  0  0
   -3.3810    8.3680   -0.6880 H   0  0  0  0  0  0  0  0  0  0  0  0
   -1.7750    7.7810   -0.2610 H   0  0  0  0  0  0  0  0  0  0  0  0
    1.3690   -9.4790   -1.4770 H   0  0  0  0  0  0  0  0  0  0  0  0
   -5.1910   -7.9770    4.8200 H   0  0  0  0  0  0  0  0  0  0  0  0
   -0.0180  -12.8540    0.8740 H   0  0  0  0  0  0  0  0  0  0  0  0
    0.2450   -7.0510   -0.9150 H   0  0  0  0  0  0  0  0  0  0  0  0
   -0.9820   -4.8720   -0.1120 H   0  0  0  0  0  0  0  0  0  0  0  0
   -6.4910   -6.0490    5.5950 H   0  0  0  0  0  0  0  0  0  0  0  0
   -6.9880   -3.6430    5.5330 H   0  0  0  0  0  0  0  0  0  0  0  0
   -2.2540   -2.8820    0.6630 H   0  0  0  0  0  0  0  0  0  0  0  0
   -4.0010   -0.6870    4.2310 H   0  0  0  0  0  0  0  0  0  0  0  0
   -4.4960   -1.4720    5.7400 H   0  0  0  0  0  0  0  0  0  0  0  0
    2.2630  -11.5620   -1.4830 H   0  0  0  0  0  0  0  0  0  0  0  0
   -3.7920  -12.2270    2.8940 H   0  0  0  0  0  0  0  0  0  0  0  0
   -3.5540  -11.9130    1.1700 H   0  0  0  0  0  0  0  0  0  0  0  0
   -2.6260  -13.1870    1.9680 H   0  0  0  0  0  0  0  0  0  0  0  0
   -5.8840    0.9760    4.5170 H   0  0  0  0  0  0  0  0  0  0  0  0
   -6.3060    0.1790    6.0440 H   0  0  0  0  0  0  0  0  0  0  0  0
   -4.7360    0.9950    5.8690 H   0  0  0  0  0  0  0  0  0  0  0  0
   -1.8740  -11.5690    4.5940 H   0  0  0  0  0  0  0  0  0  0  0  0
   -0.3790  -10.8790    3.9500 H   0  0  0  0  0  0  0  0  0  0  0  0
   -0.7650  -12.5740    3.6390 H   0  0  0  0  0  0  0  0  0  0  0  0
   -2.6340    1.2730    3.5510 H   0  0  0  0  0  0  0  0  0  0  0  0
   -1.4580    1.1580    5.6630 H   0  0  0  0  0  0  0  0  0  0  0  0
    2.8420    1.3920    7.0510 H   0  0  0  0  0  0  0  0  0  0  0  0
    0.8560    1.4510    0.2070 H   0  0  0  0  0  0  0  0  0  0  0  0
    5.0910    1.5360    5.9970 H   0  0  0  0  0  0  0  0  0  0  0  0
    3.0430    1.2650   -0.8770 H   0  0  0  0  0  0  0  0  0  0  0  0
   10.8820    1.5620    1.5660 H   0  0  0  0  0  0  0  0  0  0  0  0
    9.7340    1.2430   -0.5700 H   0  0  0  0  0  0  0  0  0  0  0  0
    7.6540    1.0120   -1.8520 H   0  0  0  0  0  0  0  0  0  0  0  0
    5.2070    0.9870   -1.9510 H   0  0  0  0  0  0  0  0  0  0  0  0
    7.7660    0.8410    5.6660 H   0  0  0  0  0  0  0  0  0  0  0  0
    7.0160    2.4270    5.9360 H   0  0  0  0  0  0  0  0  0  0  0  0
    8.7490    3.5940    4.7450 H   0  0  0  0  0  0  0  0  0  0  0  0
    9.4640    2.6090    6.0230 H   0  0  0  0  0  0  0  0  0  0  0  0
   10.7070    2.4650    3.8620 H   0  0  0  0  0  0  0  0  0  0  0  0
   10.1320    0.8800    4.4040 H   0  0  0  0  0  0  0  0  0  0  0  0
    3.7390    4.5610   -3.0910 H   0  0  0  0  0  0  0  0  0  0  0  0
    1.8200    1.5440   -6.5370 H   0  0  0  0  0  0  0  0  0  0  0  0
    6.0780    3.1270   -3.4740 H   0  0  0  0  0  0  0  0  0  0  0  0
    4.2360    0.0940   -5.5510 H   0  0  0  0  0  0  0  0  0  0  0  0
   -1.7420    4.3760   -5.6060 H   0  0  0  0  0  0  0  0  0  0  0  0
   -0.2680    2.6660   -6.4540 H   0  0  0  0  0  0  0  0  0  0  0  0
   -2.2180    6.2150   -4.2970 H   0  0  0  0  0  0  0  0  0  0  0  0
    4.8850    2.2100   -7.7150 H   0  0  0  0  0  0  0  0  0  0  0  0
    3.5190    6.6150   -3.4280 H   0  0  0  0  0  0  0  0  0  0  0  0
    1.5730    8.0940   -1.1780 H   0  0  0  0  0  0  0  0  0  0  0  0
    7.7460    1.2740   -4.2380 H   0  0  0  0  0  0  0  0  0  0  0  0
    7.5020    0.8630   -5.9260 H   0  0  0  0  0  0  0  0  0  0  0  0
    7.8730   -1.1350   -4.4290 H   0  0  0  0  0  0  0  0  0  0  0  0
    6.3400   -1.2270   -5.3080 H   0  0  0  0  0  0  0  0  0  0  0  0
    6.3510   -0.7740   -3.5940 H   0  0  0  0  0  0  0  0  0  0  0  0
   -1.6580    9.1110   -2.2930 H   0  0  0  0  0  0  0  0  0  0  0  0
   -2.8530    8.1370   -3.0940 H   0  0  0  0  0  0  0  0  0  0  0  0
  1  2  1  0
  1  5  2  0
  1 11  1  0
  2  6  2  0
  2 14  1  0
  3  4  2  0
  3  7  1  0
  3 15  1  0
  4  8  1  0
  4 18  1  0
  5  9  1  0
  5 23  1  0
  6 10  1  0
  6126  1  0
  7  9  2  0
  7 28  1  0
  8 10  2  0
  8 25  1  0
  9 10  1  0
 11 12  2  0
 11 19  1  0
 12 13  1  0
 12 22  1  0
 13 14  2  0
 13 33  1  0
 14127  1  0
 15 16  2  0
 15 27  1  0
 16 17  1  0
 16128  1  0
 17 18  2  0
 17129  1  0
 18130  1  0
 19 20  2  0
 19 24  1  0
 20 21  1  0
 20 29  1  0
 21 22  2  0
 22131  1  0
 23 24  1  0
 23 30  1  6
 23 32  1  0
 24132  1  0
 24133  1  0
 25 26  2  0
 25134  1  0
 27135  1  0
 28136  1  0
 29137  1  0
 30 31  1  0
 30138  1  0
 30139  1  0
 31 65  1  0
 31140  1  0
 31141  1  0
 32100  1  0
 32142  1  0
 32143  1  0
 33125  1  0
 33144  1  0
 33145  1  0
 34 35  2  0
 34 38  1  0
 34 55  1  0
 35 39  1  0
 35 58  1  0
 36 37  2  0
 36 40  1  0
 36 64  1  0
 37 41  1  0
 37146  1  0
 38 45  2  0
 38147  1  0
 39 46  2  0
 39 54  1  0
 40 47  2  0
 40148  1  0
 41 49  2  0
 41 51  1  0
 42 45  1  0
 42 48  2  0
 43 47  1  0
 43 48  1  0
 43 66  1  6
 43 68  1  0
 44 46  1  0
 44 50  2  0
 44 52  1  0
 45 46  1  0
 47 49  1  0
 48 50  1  0
 49 50  1  0
 51 52  2  0
 51149  1  0
 52 53  1  0
 53 54  2  0
 53150  1  0
 54 60  1  0
 55 56  2  0
 55151  1  0
 56 57  1  0
 56152  1  0
 57 58  2  0
 57 61  1  0
 58 59  1  0
 59 60  2  0
 59 65  1  0
 60153  1  0
 61 62  2  0
 61 63  1  0
 63 67  1  0
 63154  1  0
 63155  1  0
 64156  1  0
 66157  1  0
 66158  1  0
 66159  1  0
 67160  1  0
 67161  1  0
 67162  1  0
 68163  1  0
 68164  1  0
 68165  1  0
 69 70  1  0
 69 72  2  0
 69 91  1  0
 70 75  2  0
 70 94  1  0
 71 73  2  0
 71 74  1  0
 71166  1  0
 72 83  1  0
 72 97  1  0
 73 81  1  0
 73167  1  0
 74 82  2  0
 74100  1  0
 75 85  1  0
 75 89  1  0
 76 77  1  0
 76 81  2  0
 77 84  2  0
 77168  1  0
 78 79  2  0
 78 82  1  0
 78169  1  0
 79 86  1  0
 79 90  1  0
 80 83  2  0
 80 84  1  0
 80170  1  0
 81 87  1  0
 82 87  1  0
 83 85  1  0
 84 88  1  0
 85 86  2  0
 86 88  1  0
 87 88  2  0
 89 90  2  0
 89 96  1  0
 90171  1  0
 91 92  2  0
 91 99  1  0
 92 93  1  0
 92172  1  0
 93 94  2  0
 93173  1  0
 94 95  1  0
 95 96  2  0
 95174  1  0
 96175  1  0
 97 98  1  0
 97176  1  0
 97177  1  0
 98 99  1  0
 98178  1  0
 98179  1  0
 99180  1  0
 99181  1  0
101102  2  0
101104  1  0
101110  1  0
102105  1  0
102113  1  0
103106  2  0
103107  1  0
103123  1  0
104108  2  0
104182  1  0
105109  2  0
105183  1  0
106108  1  0
106184  1  0
107109  1  0
107118  1  0
107185  1  1
108109  1  0
110111  2  0
110114  1  0
111112  1  0
111117  1  0
112113  2  0
112186  1  0
113187  1  0
114115  2  0
114120  1  0
115116  1  0
115122  1  0
116117  2  0
116125  1  0
117188  1  0
118119  2  0
118189  1  0
120121  2  0
120190  1  0
122191  1  0
123124  1  0
123192  1  0
123193  1  0
124194  1  0
124195  1  0
124196  1  0
125197  1  0
125198  1  0
M  END
