
     RDKit          3D

 44 48  0  0  0  0  0  0  0  0999 V2000
    0.0540   -0.9110    2.8790 C   0  0  0  0  0  0  0  0  0  0  0  0
    1.2330   -1.6830    2.7500 C   0  0  0  0  0  0  0  0  0  0  0  0
    0.4590    0.3460   -1.9040 C   0  0  0  0  0  0  0  0  0  0  0  0
    1.6520   -0.3870   -1.9770 C   0  0  0  0  0  0  0  0  0  0  0  0
   -0.4290   -0.1730    1.7600 C   0  0  0  0  0  0  0  0  0  0  0  0
    1.9070   -1.6740    1.5120 C   0  0  0  0  0  0  0  0  0  0  0  0
   -0.2320    0.4090   -0.6790 C   0  0  0  0  0  0  0  0  0  0  0  0
    2.1170   -1.0420   -0.8270 C   0  0  0  0  0  0  0  0  0  0  0  0
    0.2300   -0.2360    0.4950 C   0  0  0  0  0  0  0  0  0  0  0  0
    1.4190   -0.9830    0.3930 C   0  0  0  0  0  0  0  0  0  0  0  0
   -0.6180   -0.8960    4.1290 C   0  0  0  0  0  0  0  0  0  0  0  0
   -0.1320   -1.6300    5.2200 C   0  0  0  0  0  0  0  0  0  0  0  0
    1.0260   -2.3830    5.0920 C   0  0  0  0  0  0  0  0  0  0  0  0
    1.6860   -2.4200    3.8700 C   0  0  0  0  0  0  0  0  0  0  0  0
   -0.0150    0.9980   -3.0550 C   0  0  0  0  0  0  0  0  0  0  0  0
    0.6780    0.9350   -4.2760 C   0  0  0  0  0  0  0  0  0  0  0  0
    1.8760    0.2030   -4.3470 C   0  0  0  0  0  0  0  0  0  0  0  0
    2.3480   -0.4500   -3.1960 C   0  0  0  0  0  0  0  0  0  0  0  0
   -1.6920    0.6570    1.9280 C   0  0  0  0  0  0  0  0  0  0  0  0
   -1.9310    1.0800    3.3730 C   0  0  0  0  0  0  0  0  0  0  0  0
   -1.9040   -0.1240    4.2980 C   0  0  0  0  0  0  0  0  0  0  0  0
    2.7870   -3.2370    3.8280 O   0  0  0  0  0  0  0  0  0  0  0  0
    0.1240    1.6540   -5.4760 C   0  0  0  0  0  0  0  0  0  0  0  0
    2.6610    0.1020   -5.6260 C   0  0  0  0  0  0  0  0  0  0  0  0
    2.8430   -2.2170    1.4060 H   0  0  0  0  0  0  0  0  0  0  0  0
   -1.1590    0.9760   -0.6550 H   0  0  0  0  0  0  0  0  0  0  0  0
    3.0400   -1.6160   -0.8870 H   0  0  0  0  0  0  0  0  0  0  0  0
   -0.6570   -1.6200    6.1720 H   0  0  0  0  0  0  0  0  0  0  0  0
    1.4030   -2.9560    5.9330 H   0  0  0  0  0  0  0  0  0  0  0  0
   -0.9420    1.5660   -3.0000 H   0  0  0  0  0  0  0  0  0  0  0  0
    3.2750   -1.0190   -3.2500 H   0  0  0  0  0  0  0  0  0  0  0  0
   -2.5440    0.0740    1.5590 H   0  0  0  0  0  0  0  0  0  0  0  0
   -1.6290    1.5790    1.3400 H   0  0  0  0  0  0  0  0  0  0  0  0
   -1.1550    1.7960    3.6780 H   0  0  0  0  0  0  0  0  0  0  0  0
   -2.8940    1.5970    3.4570 H   0  0  0  0  0  0  0  0  0  0  0  0
   -2.0080    0.2230    5.3330 H   0  0  0  0  0  0  0  0  0  0  0  0
   -2.7470   -0.7920    4.0820 H   0  0  0  0  0  0  0  0  0  0  0  0
    2.8680   -3.5830    2.9250 H   0  0  0  0  0  0  0  0  0  0  0  0
   -0.0800    0.9440   -6.2830 H   0  0  0  0  0  0  0  0  0  0  0  0
   -0.8160    2.1640   -5.2410 H   0  0  0  0  0  0  0  0  0  0  0  0
    0.8330    2.4120   -5.8250 H   0  0  0  0  0  0  0  0  0  0  0  0
    3.5670   -0.5000   -5.4970 H   0  0  0  0  0  0  0  0  0  0  0  0
    2.9720    1.0970   -5.9610 H   0  0  0  0  0  0  0  0  0  0  0  0
    2.0580   -0.3740   -6.4050 H   0  0  0  0  0  0  0  0  0  0  0  0
  1  2  1  0
  1  5  2  0
  1 11  1  0
  2  6  2  0
  2 14  1  0
  3  4  2  0
  3  7  1  0
  3 15  1  0
  4  8  1  0
  4 18  1  0
  5  9  1  0
  5 19  1  0
  6 10  1  0
  6 25  1  0
  7  9  2  0
  7 26  1  0
  8 10  2  0
  8 27  1  0
  9 10  1  0
 11 12  2  0
 11 21  1  0
 12 13  1  0
 12 28  1  0
 13 14  2  0
 13 29  1  0
 14 22  1  0
 15 16  2  0
 15 30  1  0
 16 17  1  0
 16 23  1  0
 17 18  2  0
 17 24  1  0
 18 31  1  0
 19 20  1  0
 19 32  1  0
 19 33  1  0
 20 21  1  0
 20 34  1  0
 20 35  1  0
 21 36  1  0
 21 37  1  0
 22 38  1  0
 23 39  1  0
 23 40  1  0
 23 41  1  0
 24 42  1  0
 24 43  1  0
 24 44  1  0
M  END
