
     RDKit          3D

172190  0  0  0  0  0  0  0  0999 V2000
   -4.9910    2.2390    1.5410 C   0  0  0  0  0  0  0  0  0  0  0  0
   -5.5250    3.5310    1.4130 C   0  0  0  0  0  0  0  0  0  0  0  0
   -4.4960    2.1140   -3.4720 C   0  0  0  0  0  0  0  0  0  0  0  0
   -5.1580    3.3190   -3.5420 C   0  0  0  0  0  0  0  0  0  0  0  0
   -4.5180    1.5940    0.3480 C   0  0  0  0  0  0  0  0  0  0  0  0
   -5.7470    4.0670    0.1080 C   0  0  0  0  0  0  0  0  0  0  0  0
   -4.1620    1.5670   -2.2250 C   0  0  0  0  0  0  0  0  0  0  0  0
   -5.5230    3.9580   -2.3650 C   0  0  0  0  0  0  0  0  0  0  0  0
   -4.6430    2.1500   -0.9850 C   0  0  0  0  0  0  0  0  0  0  0  0
   -5.3110    3.3950   -1.0790 C   0  0  0  0  0  0  0  0  0  0  0  0
   -4.9290    1.6160    2.8490 C   0  0  0  0  0  0  0  0  0  0  0  0
   -5.1050    2.3990    4.0230 C   0  0  0  0  0  0  0  0  0  0  0  0
   -5.5260    3.7490    3.8800 C   0  0  0  0  0  0  0  0  0  0  0  0
   -5.8280    4.2620    2.5920 C   0  0  0  0  0  0  0  0  0  0  0  0
   -3.8100    0.2680    0.5020 C   0  0  0  0  0  0  0  0  0  0  0  0
   -3.5210   -0.1710    1.9240 C   0  0  0  0  0  0  0  0  0  0  0  0
   -4.7430    0.0870    2.7900 C   0  0  1  0  0  0  0  0  0  0  0  0
   -6.4370    5.4210   -0.0100 C   0  0  0  0  0  0  0  0  0  0  0  0
   -7.2630    5.7720    1.2110 C   0  0  0  0  0  0  0  0  0  0  0  0
   -6.4200    5.6540    2.4610 C   0  0  0  0  0  0  0  0  0  0  0  0
   -3.4070    0.4000   -2.2230 O   0  0  0  0  0  0  0  0  0  0  0  0
   -4.6590   -0.8340    4.0030 C   0  0  0  0  0  0  0  0  0  0  0  0
   -5.7430    4.6520    5.0810 C   0  0  0  0  0  0  0  0  0  0  0  0
   -4.8190    1.8780    5.4180 C   0  0  0  0  0  0  0  0  0  0  0  0
   -6.3200    1.4450    6.3420 S   0  0  0  0  0  0  0  0  0  0  0  0
    2.3070    0.1510    3.1330 C   0  0  0  0  0  0  0  0  0  0  0  0
    1.8720   -1.1520    3.4720 C   0  0  0  0  0  0  0  0  0  0  0  0
   -1.9490   -3.1720   -0.5660 C   0  0  0  0  0  0  0  0  0  0  0  0
    1.8100    0.8150    1.9760 C   0  0  0  0  0  0  0  0  0  0  0  0
   -1.8360   -1.9770   -1.2190 N   0  0  0  0  0  0  0  0  0  0  0  0
    0.9880   -1.7840    2.5620 C   0  0  0  0  0  0  0  0  0  0  0  0
   -1.1000   -3.0810    0.5130 C   0  0  0  0  0  0  0  0  0  0  0  0
    0.4320    0.8020   -0.0920 C   0  0  0  0  0  0  0  0  0  0  0  0
   -0.5030    0.1910   -0.9910 C   0  0  0  0  0  0  0  0  0  0  0  0
    0.9210    0.1460    1.0760 C   0  0  0  0  0  0  0  0  0  0  0  0
   -0.9060   -1.1370   -0.6340 C   0  0  0  0  0  0  0  0  0  0  0  0
    0.5020   -1.1680    1.3750 C   0  0  0  0  0  0  0  0  0  0  0  0
   -0.4320   -1.8140    0.4960 C   0  0  0  0  0  0  0  0  0  0  0  0
    3.2730    0.7490    3.9700 C   0  0  0  0  0  0  0  0  0  0  0  0
    3.7570    0.1710    5.0970 N   0  0  0  0  0  0  0  0  0  0  0  0
    3.2830   -1.0350    5.4320 C   0  0  0  0  0  0  0  0  0  0  0  0
    2.3630   -1.7440    4.6770 C   0  0  0  0  0  0  0  0  0  0  0  0
    0.8490    2.1270   -0.3430 C   0  0  0  0  0  0  0  0  0  0  0  0
    0.4150    2.7850   -1.4960 C   0  0  0  0  0  0  0  0  0  0  0  0
   -0.4200    2.1620   -2.4200 C   0  0  0  0  0  0  0  0  0  0  0  0
   -1.0010    0.9230   -2.1300 C   0  0  0  0  0  0  0  0  0  0  0  0
    1.6860    2.7800    0.5680 C   0  0  0  0  0  0  0  0  0  0  0  0
    2.1580    2.1580    1.7270 C   0  0  0  0  0  0  0  0  0  0  0  0
    3.9460    2.0660    3.5610 C   0  0  1  0  0  0  0  0  0  0  0  0
    2.9260    2.9580    2.7880 C   0  0  1  0  0  0  0  0  0  0  0  0
   -2.8030   -4.2850   -0.9430 C   0  0  0  0  0  0  0  0  0  0  0  0
   -2.7770   -5.3550   -0.3380 O   0  0  0  0  0  0  0  0  0  0  0  0
   -3.7280   -4.0680   -2.1310 C   0  0  0  0  0  0  0  0  0  0  0  0
    0.8220    4.0770   -1.7500 O   0  0  0  0  0  0  0  0  0  0  0  0
   -0.6090    2.8370   -3.6100 O   0  0  0  0  0  0  0  0  0  0  0  0
    0.6160   -3.0780    2.8370 O   0  0  0  0  0  0  0  0  0  0  0  0
   -4.5390   -5.3070   -2.4720 C   0  0  0  0  0  0  0  0  0  0  0  0
    4.4400    2.8110    4.8290 C   0  0  0  0  0  0  0  0  0  0  0  0
    3.5540    4.2630    2.2550 C   0  0  0  0  0  0  0  0  0  0  0  0
   -2.1730    0.4820   -2.9790 C   0  0  0  0  0  0  0  0  0  0  0  0
    5.1790    1.7130    2.7030 C   0  0  0  0  0  0  0  0  0  0  0  0
    1.9480   -3.0970    5.1860 C   0  0  0  0  0  0  0  0  0  0  0  0
    3.4070   -0.6650   -2.5660 C   0  0  0  0  0  0  0  0  0  0  0  0
    2.6300   -1.8380   -2.8080 C   0  0  0  0  0  0  0  0  0  0  0  0
    5.6160   -3.4890    0.4320 C   0  0  0  0  0  0  0  0  0  0  0  0
    4.4820   -0.6840   -1.6250 C   0  0  0  0  0  0  0  0  0  0  0  0
    2.9600   -3.0410   -2.1280 C   0  0  0  0  0  0  0  0  0  0  0  0
    5.7420   -2.2060    0.0730 C   0  0  0  0  0  0  0  0  0  0  0  0
    4.4600   -4.1730   -0.2650 C   0  0  1  0  0  0  0  0  0  0  0  0
    4.7240   -1.8830   -0.9270 C   0  0  0  0  0  0  0  0  0  0  0  0
    3.9680   -3.0420   -1.1640 C   0  0  0  0  0  0  0  0  0  0  0  0
    3.0930    0.5370   -3.2640 C   0  0  0  0  0  0  0  0  0  0  0  0
    1.9930    0.5740   -4.1580 C   0  0  0  0  0  0  0  0  0  0  0  0
    1.3700   -0.6670   -4.5670 C   0  0  0  0  0  0  0  0  0  0  0  0
    1.5850   -1.8250   -3.7750 C   0  0  0  0  0  0  0  0  0  0  0  0
    3.8700    1.7150   -3.0390 C   0  0  0  0  0  0  0  0  0  0  0  0
    3.5450    2.9270   -3.6860 C   0  0  0  0  0  0  0  0  0  0  0  0
    2.3460    3.0050   -4.3810 C   0  0  0  0  0  0  0  0  0  0  0  0
    1.5260    1.8780   -4.5140 C   0  0  0  0  0  0  0  0  0  0  0  0
    4.9430    1.6580   -2.1460 C   0  0  0  0  0  0  0  0  0  0  0  0
    5.2350    0.4940   -1.4480 C   0  0  0  0  0  0  0  0  0  0  0  0
    0.5820   -0.8470   -5.7540 C   0  0  0  0  0  0  0  0  0  0  0  0
   -0.2220   -1.9800   -5.9280 C   0  0  0  0  0  0  0  0  0  0  0  0
   -0.1790   -3.0110   -5.0100 C   0  0  0  0  0  0  0  0  0  0  0  0
    0.7550   -2.9740   -3.9730 C   0  0  0  0  0  0  0  0  0  0  0  0
    2.3200   -4.3300   -2.5900 C   0  0  0  0  0  0  0  0  0  0  0  0
    0.8610   -4.1300   -2.9860 C   0  0  2  0  0  0  0  0  0  0  0  0
    5.0400   -5.3150   -1.0970 C   0  0  0  0  0  0  0  0  0  0  0  0
    4.6460   -6.4790   -1.0610 O   0  0  0  0  0  0  0  0  0  0  0  0
    6.2950    0.5310   -0.5790 O   0  0  0  0  0  0  0  0  0  0  0  0
    3.3810   -4.6070    0.7520 C   0  0  0  0  0  0  0  0  0  0  0  0
    0.2820   -5.4740   -3.4480 C   0  0  0  0  0  0  0  0  0  0  0  0
    3.8650   -5.4930    1.8980 C   0  0  0  0  0  0  0  0  0  0  0  0
    0.0430    2.1730   -4.7340 C   0  0  0  0  0  0  0  0  0  0  0  0
    4.3500    4.1910   -3.5250 C   0  0  0  0  0  0  0  0  0  0  0  0
    0.6590    0.0700   -6.9560 C   0  0  0  0  0  0  0  0  0  0  0  0
   -4.2400    1.6100   -4.3980 H   0  0  0  0  0  0  0  0  0  0  0  0
   -5.3870    3.7710   -4.5040 H   0  0  0  0  0  0  0  0  0  0  0  0
   -6.0050    4.9240   -2.4840 H   0  0  0  0  0  0  0  0  0  0  0  0
   -2.8410    0.3800    0.0390 H   0  0  0  0  0  0  0  0  0  0  0  0
   -4.3900   -0.5100   -0.0050 H   0  0  0  0  0  0  0  0  0  0  0  0
   -2.6510    0.3720    2.3210 H   0  0  0  0  0  0  0  0  0  0  0  0
   -3.2460   -1.2320    1.9110 H   0  0  0  0  0  0  0  0  0  0  0  0
   -5.6360   -0.2760    2.2570 H   0  0  0  0  0  0  0  0  0  0  0  0
   -7.1360    5.4290   -0.8530 H   0  0  0  0  0  0  0  0  0  0  0  0
   -5.6730    6.1890   -0.1870 H   0  0  0  0  0  0  0  0  0  0  0  0
   -7.6570    6.7900    1.1150 H   0  0  0  0  0  0  0  0  0  0  0  0
   -8.1270    5.0990    1.2800 H   0  0  0  0  0  0  0  0  0  0  0  0
   -7.0770    5.8850    3.3070 H   0  0  0  0  0  0  0  0  0  0  0  0
   -5.6050    6.3870    2.4520 H   0  0  0  0  0  0  0  0  0  0  0  0
   -3.7240   -0.7140    4.5580 H   0  0  0  0  0  0  0  0  0  0  0  0
   -5.5150   -0.7150    4.6680 H   0  0  0  0  0  0  0  0  0  0  0  0
   -4.6790   -1.8820    3.6750 H   0  0  0  0  0  0  0  0  0  0  0  0
   -5.4360    5.6790    4.8550 H   0  0  0  0  0  0  0  0  0  0  0  0
   -6.8000    4.6450    5.3660 H   0  0  0  0  0  0  0  0  0  0  0  0
   -5.1500    4.3850    5.9540 H   0  0  0  0  0  0  0  0  0  0  0  0
   -4.1250    1.0450    5.4130 H   0  0  0  0  0  0  0  0  0  0  0  0
   -4.2570    2.6200    5.9940 H   0  0  0  0  0  0  0  0  0  0  0  0
   -5.6950    1.0850    7.4700 H   0  0  0  0  0  0  0  0  0  0  0  0
   -2.4210   -1.7170   -1.9960 H   0  0  0  0  0  0  0  0  0  0  0  0
   -1.0170   -3.8630    1.2570 H   0  0  0  0  0  0  0  0  0  0  0  0
    3.6900   -1.4360    6.3560 H   0  0  0  0  0  0  0  0  0  0  0  0
    1.9430    3.8140    0.3550 H   0  0  0  0  0  0  0  0  0  0  0  0
    2.1510    3.2690    3.5070 H   0  0  0  0  0  0  0  0  0  0  0  0
   -3.1270   -3.7870   -3.0020 H   0  0  0  0  0  0  0  0  0  0  0  0
   -4.4110   -3.2430   -1.8950 H   0  0  0  0  0  0  0  0  0  0  0  0
    0.3450    4.3350   -2.5600 H   0  0  0  0  0  0  0  0  0  0  0  0
    0.9300   -3.6050    2.0770 H   0  0  0  0  0  0  0  0  0  0  0  0
   -5.1220   -5.6490   -1.6110 H   0  0  0  0  0  0  0  0  0  0  0  0
   -3.8830   -6.1270   -2.7830 H   0  0  0  0  0  0  0  0  0  0  0  0
   -5.2320   -5.0950   -3.2930 H   0  0  0  0  0  0  0  0  0  0  0  0
    4.9830    3.7300    4.5870 H   0  0  0  0  0  0  0  0  0  0  0  0
    3.6020    3.0770    5.4860 H   0  0  0  0  0  0  0  0  0  0  0  0
    5.1380    2.2020    5.4170 H   0  0  0  0  0  0  0  0  0  0  0  0
    4.2140    4.0780    1.4010 H   0  0  0  0  0  0  0  0  0  0  0  0
    4.1270    4.7950    3.0170 H   0  0  0  0  0  0  0  0  0  0  0  0
    2.7800    4.9680    1.9330 H   0  0  0  0  0  0  0  0  0  0  0  0
   -2.2950    1.1170   -3.8560 H   0  0  0  0  0  0  0  0  0  0  0  0
   -1.9590   -0.4980   -3.4150 H   0  0  0  0  0  0  0  0  0  0  0  0
    5.7600    2.6050    2.4420 H   0  0  0  0  0  0  0  0  0  0  0  0
    4.8940    1.2140    1.7700 H   0  0  0  0  0  0  0  0  0  0  0  0
    5.8540    1.0330    3.2370 H   0  0  0  0  0  0  0  0  0  0  0  0
    0.8660   -3.1380    5.3410 H   0  0  0  0  0  0  0  0  0  0  0  0
    2.2670   -3.8850    4.4980 H   0  0  0  0  0  0  0  0  0  0  0  0
    2.4110   -3.3220    6.1550 H   0  0  0  0  0  0  0  0  0  0  0  0
    6.2590   -3.9770    1.1530 H   0  0  0  0  0  0  0  0  0  0  0  0
    6.4810   -1.5230    0.4550 H   0  0  0  0  0  0  0  0  0  0  0  0
    1.9860    3.9760   -4.7210 H   0  0  0  0  0  0  0  0  0  0  0  0
    5.5440    2.5410   -1.9600 H   0  0  0  0  0  0  0  0  0  0  0  0
   -0.8580   -2.0790   -6.8050 H   0  0  0  0  0  0  0  0  0  0  0  0
   -0.8250   -3.8680   -5.1700 H   0  0  0  0  0  0  0  0  0  0  0  0
    2.9030   -4.7030   -3.4430 H   0  0  0  0  0  0  0  0  0  0  0  0
    2.3630   -5.0990   -1.8180 H   0  0  0  0  0  0  0  0  0  0  0  0
    0.3030   -3.8300   -2.0940 H   0  0  0  0  0  0  0  0  0  0  0  0
    5.8540   -5.0320   -1.7900 H   0  0  0  0  0  0  0  0  0  0  0  0
    6.6330    1.4370   -0.5130 H   0  0  0  0  0  0  0  0  0  0  0  0
    2.5660   -5.1410    0.2510 H   0  0  0  0  0  0  0  0  0  0  0  0
    2.9250   -3.7130    1.1950 H   0  0  0  0  0  0  0  0  0  0  0  0
    0.7270   -5.7990   -4.3940 H   0  0  0  0  0  0  0  0  0  0  0  0
   -0.8040   -5.4150   -3.5820 H   0  0  0  0  0  0  0  0  0  0  0  0
    0.4660   -6.2540   -2.7020 H   0  0  0  0  0  0  0  0  0  0  0  0
    3.0150   -5.7840    2.5240 H   0  0  0  0  0  0  0  0  0  0  0  0
    4.5770   -4.9680    2.5420 H   0  0  0  0  0  0  0  0  0  0  0  0
    4.3360   -6.4090    1.5320 H   0  0  0  0  0  0  0  0  0  0  0  0
   -0.0560    2.8500   -5.5910 H   0  0  0  0  0  0  0  0  0  0  0  0
   -0.5410    1.2920   -4.9840 H   0  0  0  0  0  0  0  0  0  0  0  0
    4.2330    4.5870   -2.5120 H   0  0  0  0  0  0  0  0  0  0  0  0
    5.4090    4.0040   -3.7310 H   0  0  0  0  0  0  0  0  0  0  0  0
    4.0250    4.9650   -4.2300 H   0  0  0  0  0  0  0  0  0  0  0  0
    1.4910    0.7760   -6.9010 H   0  0  0  0  0  0  0  0  0  0  0  0
   -0.2780    0.6140   -7.0980 H   0  0  0  0  0  0  0  0  0  0  0  0
    0.8420   -0.5300   -7.8580 H   0  0  0  0  0  0  0  0  0  0  0  0
  1  2  1  0
  1  5  2  0
  1 11  1  0
  2  6  2  0
  2 14  1  0
  3  4  2  0
  3  7  1  0
  3 97  1  0
  4  8  1  0
  4 98  1  0
  5  9  1  0
  5 15  1  0
  6 10  1  0
  6 18  1  0
  7  9  2  0
  7 21  1  0
  8 10  2  0
  8 99  1  0
  9 10  1  0
 11 12  2  0
 11 17  1  0
 12 13  1  0
 12 24  1  0
 13 14  2  0
 13 23  1  0
 14 20  1  0
 15 16  1  0
 15100  1  0
 15101  1  0
 16 17  1  0
 16102  1  0
 16103  1  0
 17 22  1  0
 17104  1  6
 18 19  1  0
 18105  1  0
 18106  1  0
 19 20  1  0
 19107  1  0
 19108  1  0
 20109  1  0
 20110  1  0
 21 60  1  0
 22111  1  0
 22112  1  0
 22113  1  0
 23114  1  0
 23115  1  0
 23116  1  0
 24 25  1  0
 24117  1  0
 24118  1  0
 25119  1  0
 26 27  1  0
 26 29  2  0
 26 39  1  0
 27 31  2  0
 27 42  1  0
 28 30  1  0
 28 32  2  0
 28 51  1  0
 29 35  1  0
 29 48  1  0
 30 36  1  0
 30120  1  0
 31 37  1  0
 31 56  1  0
 32 38  1  0
 32121  1  0
 33 34  1  0
 33 35  2  0
 33 43  1  0
 34 36  2  0
 34 46  1  0
 35 37  1  0
 36 38  1  0
 37 38  2  0
 39 40  2  0
 39 49  1  0
 40 41  1  0
 41 42  2  0
 41122  1  0
 42 62  1  0
 43 44  2  0
 43 47  1  0
 44 45  1  0
 44 54  1  0
 45 46  2  0
 45 55  1  0
 46 60  1  0
 47 48  2  0
 47123  1  0
 48 50  1  0
 49 50  1  0
 49 58  1  1
 49 61  1  0
 50 59  1  0
 50124  1  1
 51 52  2  0
 51 53  1  0
 53 57  1  0
 53125  1  0
 53126  1  0
 54127  1  0
 55 94  1  0
 56128  1  0
 57129  1  0
 57130  1  0
 57131  1  0
 58132  1  0
 58133  1  0
 58134  1  0
 59135  1  0
 59136  1  0
 59137  1  0
 60138  1  0
 60139  1  0
 61140  1  0
 61141  1  0
 61142  1  0
 62143  1  0
 62144  1  0
 62145  1  0
 63 64  2  0
 63 66  1  0
 63 72  1  0
 64 67  1  0
 64 75  1  0
 65 68  2  0
 65 69  1  0
 65146  1  0
 66 70  2  0
 66 81  1  0
 67 71  2  0
 67 86  1  0
 68 70  1  0
 68147  1  0
 69 71  1  0
 69 88  1  0
 69 91  1  1
 70 71  1  0
 72 73  2  0
 72 76  1  0
 73 74  1  0
 73 79  1  0
 74 75  2  0
 74 82  1  0
 75 85  1  0
 76 77  2  0
 76 80  1  0
 77 78  1  0
 77 95  1  0
 78 79  2  0
 78148  1  0
 79 94  1  0
 80 81  2  0
 80149  1  0
 81 90  1  0
 82 83  2  0
 82 96  1  0
 83 84  1  0
 83150  1  0
 84 85  2  0
 84151  1  0
 85 87  1  0
 86 87  1  0
 86152  1  0
 86153  1  0
 87 92  1  0
 87154  1  1
 88 89  2  0
 88155  1  0
 90156  1  0
 91 93  1  0
 91157  1  0
 91158  1  0
 92159  1  0
 92160  1  0
 92161  1  0
 93162  1  0
 93163  1  0
 93164  1  0
 94165  1  0
 94166  1  0
 95167  1  0
 95168  1  0
 95169  1  0
 96170  1  0
 96171  1  0
 96172  1  0
M  END
