
     RDKit          3D

173193  0  0  0  0  0  0  0  0999 V2000
   -6.2170   -4.0340   -1.2050 C   0  0  0  0  0  0  0  0  0  0  0  0
  -12.7000   -5.9240   -3.2320 C   0  0  0  0  0  0  0  0  0  0  0  0
   -6.9340   -3.2540   -2.1440 C   0  0  0  0  0  0  0  0  0  0  0  0
   -6.8620   -5.1880   -0.6790 C   0  0  0  0  0  0  0  0  0  0  0  0
  -12.1020   -4.8850   -3.8510 N   0  0  0  0  0  0  0  0  0  0  0  0
  -12.1080   -6.6570   -2.2250 C   0  0  0  0  0  0  0  0  0  0  0  0
   -8.9280   -3.1380   -3.7430 C   0  0  0  0  0  0  0  0  0  0  0  0
   -8.8730   -6.6440   -0.4360 C   0  0  0  0  0  0  0  0  0  0  0  0
  -10.2210   -3.5180   -4.1050 C   0  0  0  0  0  0  0  0  0  0  0  0
  -10.1660   -7.0050   -0.8140 C   0  0  0  0  0  0  0  0  0  0  0  0
   -8.2160   -3.7050   -2.6500 C   0  0  0  0  0  0  0  0  0  0  0  0
   -8.1860   -5.5570   -1.0310 C   0  0  0  0  0  0  0  0  0  0  0  0
  -10.8630   -4.5450   -3.4570 C   0  0  0  0  0  0  0  0  0  0  0  0
  -10.8200   -6.3020   -1.8200 C   0  0  0  0  0  0  0  0  0  0  0  0
   -8.8490   -4.8160   -2.0350 C   0  0  0  0  0  0  0  0  0  0  0  0
  -10.1670   -5.2140   -2.4350 C   0  0  0  0  0  0  0  0  0  0  0  0
   -4.9050   -3.5960   -0.8490 C   0  0  0  0  0  0  0  0  0  0  0  0
   -4.3120   -2.4270   -1.3450 C   0  0  0  0  0  0  0  0  0  0  0  0
   -5.0750   -1.6010   -2.1360 C   0  0  0  0  0  0  0  0  0  0  0  0
   -6.3560   -2.0120   -2.5180 C   0  0  0  0  0  0  0  0  0  0  0  0
   -6.1550   -6.0650    0.2920 C   0  0  0  0  0  0  0  0  0  0  0  0
   -6.4100   -5.9600    1.4890 O   0  0  0  0  0  0  0  0  0  0  0  0
   -5.2500   -7.1310   -0.3080 C   0  0  0  0  0  0  0  0  0  0  0  0
   -8.3640   -2.2300   -4.6060 O   0  0  0  0  0  0  0  0  0  0  0  0
   -4.1370   -4.3470    0.0100 O   0  0  0  0  0  0  0  0  0  0  0  0
   -3.0050   -2.2500   -0.9790 O   0  0  0  0  0  0  0  0  0  0  0  0
   -4.4930   -7.9520    0.7380 C   0  0  0  0  0  0  0  0  0  0  0  0
   -3.3740   -7.1630    1.4260 C   0  0  0  0  0  0  0  0  0  0  0  0
   -2.5930   -8.0460    2.4000 C   0  0  0  0  0  0  0  0  0  0  0  0
   -1.4840   -7.2670    3.0920 C   0  0  0  0  0  0  0  0  0  0  0  0
    2.0790    0.4530   -1.5380 C   0  0  0  0  0  0  0  0  0  0  0  0
    2.2270    0.9530   -2.8600 C   0  0  0  0  0  0  0  0  0  0  0  0
    0.0160   -0.6950   -8.1490 C   0  0  0  0  0  0  0  0  0  0  0  0
    0.9990   -0.4180   -1.2260 C   0  0  0  0  0  0  0  0  0  0  0  0
   -0.7690   -1.7850   -8.0740 C   0  0  0  0  0  0  0  0  0  0  0  0
    1.4180    0.4980   -3.8560 N   0  0  0  0  0  0  0  0  0  0  0  0
    0.2640   -0.0590   -6.8100 C   0  0  2  0  0  0  0  0  0  0  0  0
   -1.9400   -2.9640   -6.0120 C   0  0  0  0  0  0  0  0  0  0  0  0
   -1.9630   -3.0000   -4.5850 C   0  0  0  0  0  0  0  0  0  0  0  0
   -0.9320   -1.9230   -2.3240 C   0  0  2  0  0  0  0  0  0  0  0  0
   -1.1100   -2.0100   -6.6500 C   0  0  0  0  0  0  0  0  0  0  0  0
    0.1970   -0.8700   -2.2780 C   0  0  0  0  0  0  0  0  0  0  0  0
   -1.1430   -2.0870   -3.8620 C   0  0  0  0  0  0  0  0  0  0  0  0
   -0.3890   -1.0550   -5.8990 C   0  0  0  0  0  0  0  0  0  0  0  0
    0.4590   -0.3990   -3.5550 C   0  0  0  0  0  0  0  0  0  0  0  0
   -0.3470   -1.1190   -4.5230 C   0  0  0  0  0  0  0  0  0  0  0  0
    3.0130    0.7870   -0.5230 C   0  0  0  0  0  0  0  0  0  0  0  0
    4.1230    1.6050   -0.8190 C   0  0  0  0  0  0  0  0  0  0  0  0
    4.2380    2.1860   -2.1170 C   0  0  0  0  0  0  0  0  0  0  0  0
    3.2620    1.8980   -3.1190 C   0  0  0  0  0  0  0  0  0  0  0  0
   -2.7650   -3.8690   -6.7210 C   0  0  0  0  0  0  0  0  0  0  0  0
   -3.5800   -4.7970   -6.0770 C   0  0  0  0  0  0  0  0  0  0  0  0
   -3.5950   -4.8470   -4.6970 C   0  0  0  0  0  0  0  0  0  0  0  0
   -2.7960   -3.9640   -3.9710 C   0  0  0  0  0  0  0  0  0  0  0  0
    2.8430    0.2680    0.7940 C   0  0  0  0  0  0  0  0  0  0  0  0
    3.8010    0.4990    1.7860 C   0  0  0  0  0  0  0  0  0  0  0  0
    4.9330    1.2290    1.4800 C   0  0  0  0  0  0  0  0  0  0  0  0
    5.0680    1.8040    0.2200 C   0  0  0  0  0  0  0  0  0  0  0  0
    1.7140   -0.4840    1.1020 C   0  0  0  0  0  0  0  0  0  0  0  0
    0.8000   -0.8120    0.1090 C   0  0  0  0  0  0  0  0  0  0  0  0
    5.3020    3.0730   -2.4430 C   0  0  0  0  0  0  0  0  0  0  0  0
    5.4290    3.6910   -3.6830 C   0  0  0  0  0  0  0  0  0  0  0  0
    4.4670    3.4580   -4.6460 C   0  0  0  0  0  0  0  0  0  0  0  0
    3.3970    2.5970   -4.3580 C   0  0  0  0  0  0  0  0  0  0  0  0
    2.2900    2.6310   -5.3140 C   0  0  0  0  0  0  0  0  0  0  0  0
    1.4110    3.4790   -5.1840 O   0  0  0  0  0  0  0  0  0  0  0  0
    4.6230    4.1520   -5.9410 C   0  0  0  0  0  0  0  0  0  0  0  0
    4.1980    3.6860   -6.9890 O   0  0  0  0  0  0  0  0  0  0  0  0
    5.9380    1.4800    2.3650 O   0  0  0  0  0  0  0  0  0  0  0  0
   -2.2020   -1.2920   -1.6760 C   0  0  0  0  0  0  0  0  0  0  0  0
   -0.4290    1.3000   -6.7500 C   0  0  0  0  0  0  0  0  0  0  0  0
   -1.1210   -2.6450   -9.2320 C   0  0  0  0  0  0  0  0  0  0  0  0
   -0.4410   -3.2480   -1.7100 C   0  0  0  0  0  0  0  0  0  0  0  0
    6.5680    6.3080    4.2240 C   0  0  0  0  0  0  0  0  0  0  0  0
    6.7110    7.6090    3.7030 C   0  0  0  0  0  0  0  0  0  0  0  0
    0.9310    9.1790    7.4850 C   0  0  0  0  0  0  0  0  0  0  0  0
    5.5100    6.0270    5.1350 C   0  0  0  0  0  0  0  0  0  0  0  0
    5.7840    8.5940    4.0810 C   0  0  0  0  0  0  0  0  0  0  0  0
    1.4930    7.9380    7.6760 C   0  0  0  0  0  0  0  0  0  0  0  0
    1.6940    9.8310    6.5630 N   0  0  0  0  0  0  0  0  0  0  0  0
    3.6390    6.8210    6.5960 C   0  0  0  0  0  0  0  0  0  0  0  0
    3.7550    9.3180    5.2510 C   0  0  0  0  0  0  0  0  0  0  0  0
    4.6200    7.0580    5.5640 C   0  0  0  0  0  0  0  0  0  0  0  0
    4.7190    8.3340    4.9650 C   0  0  0  0  0  0  0  0  0  0  0  0
    2.6520    7.8190    6.8460 C   0  0  0  0  0  0  0  0  0  0  0  0
    2.7390    9.0290    6.1600 C   0  0  0  0  0  0  0  0  0  0  0  0
    7.4890    5.2930    3.8300 C   0  0  0  0  0  0  0  0  0  0  0  0
    8.5540    5.5980    2.9410 C   0  0  0  0  0  0  0  0  0  0  0  0
    8.6700    6.9020    2.4460 C   0  0  0  0  0  0  0  0  0  0  0  0
    7.7640    7.8900    2.8150 C   0  0  0  0  0  0  0  0  0  0  0  0
    7.3390    3.9740    4.3140 C   0  0  0  0  0  0  0  0  0  0  0  0
    8.2690    2.9850    3.9020 C   0  0  0  0  0  0  0  0  0  0  0  0
    9.3310    3.2960    3.0520 C   0  0  0  0  0  0  0  0  0  0  0  0
    9.4660    4.5930    2.5750 C   0  0  0  0  0  0  0  0  0  0  0  0
    6.2460    3.7050    5.1580 C   0  0  0  0  0  0  0  0  0  0  0  0
    5.3350    4.6920    5.5650 C   0  0  0  0  0  0  0  0  0  0  0  0
    4.0900    4.3490    6.3940 C   0  0  2  0  0  0  0  0  0  0  0  0
    3.8380    5.5120    7.3940 C   0  0  2  0  0  0  0  0  0  0  0  0
    8.1370    1.5710    4.3420 C   0  0  0  0  0  0  0  0  0  0  0  0
    8.1640    1.2900    5.5370 O   0  0  0  0  0  0  0  0  0  0  0  0
    7.9210    0.5170    3.2790 C   0  0  0  0  0  0  0  0  0  0  0  0
    9.6830    7.2090    1.5740 O   0  0  0  0  0  0  0  0  0  0  0  0
    5.9780    9.8660    3.5780 O   0  0  0  0  0  0  0  0  0  0  0  0
    6.4300    0.3180    3.0430 C   0  0  0  0  0  0  0  0  0  0  0  0
    4.1400    2.9720    7.0790 C   0  0  0  0  0  0  0  0  0  0  0  0
    2.7670    5.1900    8.4380 C   0  0  0  0  0  0  0  0  0  0  0  0
  -13.7000   -6.1590   -3.5850 H   0  0  0  0  0  0  0  0  0  0  0  0
  -12.6440   -7.4860   -1.7730 H   0  0  0  0  0  0  0  0  0  0  0  0
   -8.4120   -7.2260    0.3630 H   0  0  0  0  0  0  0  0  0  0  0  0
  -10.7160   -3.0240   -4.9370 H   0  0  0  0  0  0  0  0  0  0  0  0
  -10.6440   -7.8450   -0.3130 H   0  0  0  0  0  0  0  0  0  0  0  0
   -4.7360   -0.6290   -2.4780 H   0  0  0  0  0  0  0  0  0  0  0  0
   -6.9260   -1.2890   -3.1000 H   0  0  0  0  0  0  0  0  0  0  0  0
   -4.5460   -6.6730   -1.0080 H   0  0  0  0  0  0  0  0  0  0  0  0
   -5.8900   -7.8130   -0.8810 H   0  0  0  0  0  0  0  0  0  0  0  0
   -7.4560   -2.5360   -4.7870 H   0  0  0  0  0  0  0  0  0  0  0  0
   -3.3570   -3.8000    0.2240 H   0  0  0  0  0  0  0  0  0  0  0  0
   -4.0530   -8.8220    0.2360 H   0  0  0  0  0  0  0  0  0  0  0  0
   -5.1910   -8.3390    1.4900 H   0  0  0  0  0  0  0  0  0  0  0  0
   -3.7950   -6.3120    1.9710 H   0  0  0  0  0  0  0  0  0  0  0  0
   -2.6890   -6.7600    0.6710 H   0  0  0  0  0  0  0  0  0  0  0  0
   -2.1540   -8.8950    1.8640 H   0  0  0  0  0  0  0  0  0  0  0  0
   -3.2710   -8.4570    3.1580 H   0  0  0  0  0  0  0  0  0  0  0  0
   -1.8940   -6.4410    3.6810 H   0  0  0  0  0  0  0  0  0  0  0  0
   -0.9260   -7.9220    3.7670 H   0  0  0  0  0  0  0  0  0  0  0  0
   -0.7810   -6.8530    2.3620 H   0  0  0  0  0  0  0  0  0  0  0  0
    0.4440   -0.3070   -9.0620 H   0  0  0  0  0  0  0  0  0  0  0  0
    1.3400   -0.0020   -6.6180 H   0  0  0  0  0  0  0  0  0  0  0  0
   -2.8060   -3.8610   -7.8030 H   0  0  0  0  0  0  0  0  0  0  0  0
   -4.2000   -5.4760   -6.6580 H   0  0  0  0  0  0  0  0  0  0  0  0
   -4.2240   -5.5660   -4.1800 H   0  0  0  0  0  0  0  0  0  0  0  0
   -2.8500   -4.0530   -2.8950 H   0  0  0  0  0  0  0  0  0  0  0  0
    3.6660    0.1020    2.7880 H   0  0  0  0  0  0  0  0  0  0  0  0
    5.9600    2.4040    0.0700 H   0  0  0  0  0  0  0  0  0  0  0  0
    1.5410   -0.8470    2.1140 H   0  0  0  0  0  0  0  0  0  0  0  0
   -0.0650   -1.3950    0.4090 H   0  0  0  0  0  0  0  0  0  0  0  0
    6.0720    3.3210   -1.7160 H   0  0  0  0  0  0  0  0  0  0  0  0
    6.2680    4.3560   -3.8670 H   0  0  0  0  0  0  0  0  0  0  0  0
    2.3430    1.9270   -6.1550 H   0  0  0  0  0  0  0  0  0  0  0  0
    5.1780    5.1030   -5.9210 H   0  0  0  0  0  0  0  0  0  0  0  0
   -2.7470   -0.7090   -2.4250 H   0  0  0  0  0  0  0  0  0  0  0  0
   -1.9210   -0.5620   -0.9070 H   0  0  0  0  0  0  0  0  0  0  0  0
   -1.4770    1.2430   -7.0700 H   0  0  0  0  0  0  0  0  0  0  0  0
   -0.4380    1.7050   -5.7340 H   0  0  0  0  0  0  0  0  0  0  0  0
    0.0730    2.0200   -7.4050 H   0  0  0  0  0  0  0  0  0  0  0  0
   -0.5650   -2.3500  -10.1280 H   0  0  0  0  0  0  0  0  0  0  0  0
   -2.1860   -2.5580   -9.4710 H   0  0  0  0  0  0  0  0  0  0  0  0
   -0.8710   -3.6930   -9.0360 H   0  0  0  0  0  0  0  0  0  0  0  0
   -1.1660   -4.0590   -1.7810 H   0  0  0  0  0  0  0  0  0  0  0  0
    0.4750   -3.5990   -2.2070 H   0  0  0  0  0  0  0  0  0  0  0  0
   -0.2110   -3.1680   -0.6450 H   0  0  0  0  0  0  0  0  0  0  0  0
    0.0560    9.6440    7.9200 H   0  0  0  0  0  0  0  0  0  0  0  0
    1.0760    7.2000    8.3460 H   0  0  0  0  0  0  0  0  0  0  0  0
    1.5240   10.7650    6.2200 H   0  0  0  0  0  0  0  0  0  0  0  0
    3.7630   10.2810    4.7520 H   0  0  0  0  0  0  0  0  0  0  0  0
    7.8650    8.8950    2.4120 H   0  0  0  0  0  0  0  0  0  0  0  0
   10.0590    2.5440    2.7620 H   0  0  0  0  0  0  0  0  0  0  0  0
   10.2940    4.8270    1.9080 H   0  0  0  0  0  0  0  0  0  0  0  0
    6.1080    2.6840    5.5040 H   0  0  0  0  0  0  0  0  0  0  0  0
    3.2510    4.3080    5.6840 H   0  0  0  0  0  0  0  0  0  0  0  0
    4.7600    5.6690    7.9740 H   0  0  0  0  0  0  0  0  0  0  0  0
    8.3860   -0.4110    3.6310 H   0  0  0  0  0  0  0  0  0  0  0  0
    8.4250    0.8030    2.3510 H   0  0  0  0  0  0  0  0  0  0  0  0
    9.6110    8.1480    1.3350 H   0  0  0  0  0  0  0  0  0  0  0  0
    5.8230   10.4790    4.3170 H   0  0  0  0  0  0  0  0  0  0  0  0
    5.8890    0.1960    3.9870 H   0  0  0  0  0  0  0  0  0  0  0  0
    6.2980   -0.5850    2.4340 H   0  0  0  0  0  0  0  0  0  0  0  0
    4.9600    2.9170    7.8030 H   0  0  0  0  0  0  0  0  0  0  0  0
    3.2030    2.7440    7.5950 H   0  0  0  0  0  0  0  0  0  0  0  0
    4.2660    2.1640    6.3500 H   0  0  0  0  0  0  0  0  0  0  0  0
    1.7940    5.0000    7.9710 H   0  0  0  0  0  0  0  0  0  0  0  0
    3.0340    4.3120    9.0350 H   0  0  0  0  0  0  0  0  0  0  0  0
    2.6740    6.0010    9.1660 H   0  0  0  0  0  0  0  0  0  0  0  0
  1  3  2  0
  1  4  1  0
  1 17  1  0
  2  5  2  0
  2  6  1  0
  2107  1  0
  3 11  1  0
  3 20  1  0
  4 12  2  0
  4 21  1  0
  5 13  1  0
  6 14  2  0
  6108  1  0
  7  9  1  0
  7 11  2  0
  7 24  1  0
  8 10  2  0
  8 12  1  0
  8109  1  0
  9 13  2  0
  9110  1  0
 10 14  1  0
 10111  1  0
 11 15  1  0
 12 15  1  0
 13 16  1  0
 14 16  1  0
 15 16  2  0
 17 18  2  0
 17 25  1  0
 18 19  1  0
 18 26  1  0
 19 20  2  0
 19112  1  0
 20113  1  0
 21 22  2  0
 21 23  1  0
 23 27  1  0
 23114  1  0
 23115  1  0
 24116  1  0
 25117  1  0
 26 70  1  0
 27 28  1  0
 27118  1  0
 27119  1  0
 28 29  1  0
 28120  1  0
 28121  1  0
 29 30  1  0
 29122  1  0
 29123  1  0
 30124  1  0
 30125  1  0
 30126  1  0
 31 32  2  0
 31 34  1  0
 31 47  1  0
 32 36  1  0
 32 50  1  0
 33 35  2  0
 33 37  1  0
 33127  1  0
 34 42  2  0
 34 60  1  0
 35 41  1  0
 35 72  1  0
 36 45  2  0
 37 44  1  0
 37 71  1  0
 37128  1  1
 38 39  1  0
 38 41  2  0
 38 51  1  0
 39 43  2  0
 39 54  1  0
 40 42  1  0
 40 43  1  0
 40 70  1  1
 40 73  1  0
 41 44  1  0
 42 45  1  0
 43 46  1  0
 44 46  2  0
 45 46  1  0
 47 48  2  0
 47 55  1  0
 48 49  1  0
 48 58  1  0
 49 50  2  0
 49 61  1  0
 50 64  1  0
 51 52  2  0
 51129  1  0
 52 53  1  0
 52130  1  0
 53 54  2  0
 53131  1  0
 54132  1  0
 55 56  2  0
 55 59  1  0
 56 57  1  0
 56133  1  0
 57 58  2  0
 57 69  1  0
 58134  1  0
 59 60  2  0
 59135  1  0
 60136  1  0
 61 62  2  0
 61137  1  0
 62 63  1  0
 62138  1  0
 63 64  2  0
 63 67  1  0
 64 65  1  0
 65 66  2  0
 65139  1  0
 67 68  2  0
 67140  1  0
 69104  1  0
 70141  1  0
 70142  1  0
 71143  1  0
 71144  1  0
 71145  1  0
 72146  1  0
 72147  1  0
 72148  1  0
 73149  1  0
 73150  1  0
 73151  1  0
 74 75  2  0
 74 77  1  0
 74 87  1  0
 75 78  1  0
 75 90  1  0
 76 79  2  0
 76 80  1  0
 76152  1  0
 77 83  2  0
 77 96  1  0
 78 84  2  0
 78103  1  0
 79 85  1  0
 79153  1  0
 80 86  1  0
 80154  1  0
 81 83  1  0
 81 85  2  0
 81 98  1  0
 82 84  1  0
 82 86  2  0
 82155  1  0
 83 84  1  0
 85 86  1  0
 87 88  2  0
 87 91  1  0
 88 89  1  0
 88 94  1  0
 89 90  2  0
 89102  1  0
 90156  1  0
 91 92  2  0
 91 95  1  0
 92 93  1  0
 92 99  1  0
 93 94  2  0
 93157  1  0
 94158  1  0
 95 96  2  0
 95159  1  0
 96 97  1  0
 97 98  1  0
 97105  1  0
 97160  1  6
 98106  1  0
 98161  1  1
 99100  2  0
 99101  1  0
101104  1  0
101162  1  0
101163  1  0
102164  1  0
103165  1  0
104166  1  0
104167  1  0
105168  1  0
105169  1  0
105170  1  0
106171  1  0
106172  1  0
106173  1  0
M  END
