
     RDKit          3D

184203  0  0  0  0  0  0  0  0999 V2000
   -0.8010    7.1200   -1.8260 C   0  0  0  0  0  0  0  0  0  0  0  0
   -0.9840    8.4670   -1.4540 C   0  0  0  0  0  0  0  0  0  0  0  0
    3.4240    7.0310    0.6550 C   0  0  0  0  0  0  0  0  0  0  0  0
    3.2500    8.3950    0.9790 C   0  0  0  0  0  0  0  0  0  0  0  0
    0.3590    6.4240   -1.4070 C   0  0  0  0  0  0  0  0  0  0  0  0
   -0.0070    9.1020   -0.6750 C   0  0  0  0  0  0  0  0  0  0  0  0
    2.4900    6.3740   -0.1840 C   0  0  0  0  0  0  0  0  0  0  0  0
    2.1150    9.0720    0.5210 C   0  0  0  0  0  0  0  0  0  0  0  0
    1.3330    7.0700   -0.6080 C   0  0  0  0  0  0  0  0  0  0  0  0
    1.1440    8.4220   -0.2480 C   0  0  0  0  0  0  0  0  0  0  0  0
   -1.7750    6.4720   -2.6290 C   0  0  0  0  0  0  0  0  0  0  0  0
   -2.9290    7.1820   -3.0500 C   0  0  0  0  0  0  0  0  0  0  0  0
   -3.0890    8.5180   -2.6670 C   0  0  0  0  0  0  0  0  0  0  0  0
   -2.1270    9.1540   -1.8810 C   0  0  0  0  0  0  0  0  0  0  0  0
    4.5230    6.3400    1.2090 C   0  0  0  0  0  0  0  0  0  0  0  0
    5.4650    7.0140    2.0020 C   0  0  0  0  0  0  0  0  0  0  0  0
    5.3120    8.3690    2.2700 C   0  0  0  0  0  0  0  0  0  0  0  0
    4.2070    9.0530    1.7690 C   0  0  0  0  0  0  0  0  0  0  0  0
   -1.5830    5.1270   -3.0150 C   0  0  0  0  0  0  0  0  0  0  0  0
   -2.5580    4.5250   -3.8230 C   0  0  0  0  0  0  0  0  0  0  0  0
   -3.6970    5.2210   -4.2270 C   0  0  0  0  0  0  0  0  0  0  0  0
   -3.8910    6.5410   -3.8460 C   0  0  0  0  0  0  0  0  0  0  0  0
   -0.4220    4.4540   -2.5910 C   0  0  0  0  0  0  0  0  0  0  0  0
    0.5490    5.0850   -1.7970 C   0  0  0  0  0  0  0  0  0  0  0  0
    1.7240    4.4180   -1.4180 C   0  0  0  0  0  0  0  0  0  0  0  0
    2.7050    5.0450   -0.6320 C   0  0  0  0  0  0  0  0  0  0  0  0
    4.6200    4.8370    1.0320 C   0  0  2  0  0  0  0  0  0  0  0  0
    4.0740    4.4050   -0.3570 C   0  0  1  0  0  0  0  0  0  0  0  0
   -2.4090    3.2260   -4.2390 O   0  0  0  0  0  0  0  0  0  0  0  0
   -4.6010    4.5550   -5.0110 O   0  0  0  0  0  0  0  0  0  0  0  0
    4.1400    2.8760   -0.5970 C   0  0  0  0  0  0  0  0  0  0  0  0
    5.5160    2.2460   -0.3230 C   0  0  0  0  0  0  0  0  0  0  0  0
    3.9050    4.1430    2.2030 C   0  0  0  0  0  0  0  0  0  0  0  0
    0.9730   -4.8530    1.2120 C   0  0  0  0  0  0  0  0  0  0  0  0
    4.3800   -2.2710    3.6140 C   0  0  0  0  0  0  0  0  0  0  0  0
   -0.1980   -2.7060    5.5240 C   0  0  0  0  0  0  0  0  0  0  0  0
    2.2700   -4.2940    1.2750 C   0  0  0  0  0  0  0  0  0  0  0  0
    0.0710   -4.5500    2.2730 C   0  0  0  0  0  0  0  0  0  0  0  0
    3.9140   -2.9060    2.4310 C   0  0  0  0  0  0  0  0  0  0  0  0
   -0.6330   -3.1610    4.3240 C   0  0  0  0  0  0  0  0  0  0  0  0
    3.5380   -2.1670    4.7400 C   0  0  0  0  0  0  0  0  0  0  0  0
    1.2720   -2.5550    5.8270 C   0  0  0  0  0  0  0  0  0  0  0  0
    2.6370   -3.4990    2.3930 C   0  0  0  0  0  0  0  0  0  0  0  0
    0.3870   -3.6850    3.3420 C   0  0  0  0  0  0  0  0  0  0  0  0
    2.1970   -2.6250    4.6310 C   0  0  0  0  0  0  0  0  0  0  0  0
    1.7310   -3.2640    3.4590 C   0  0  0  0  0  0  0  0  0  0  0  0
    0.6340   -5.6380    0.0680 C   0  0  0  0  0  0  0  0  0  0  0  0
    1.5810   -5.9730   -0.8860 C   0  0  0  0  0  0  0  0  0  0  0  0
    2.8540   -5.4230   -0.8010 C   0  0  0  0  0  0  0  0  0  0  0  0
    3.2200   -4.5470    0.2420 C   0  0  0  0  0  0  0  0  0  0  0  0
    4.4860   -3.9010    0.2690 C   0  0  0  0  0  0  0  0  0  0  0  0
    4.7380   -2.9510    1.2720 C   0  0  0  0  0  0  0  0  0  0  0  0
    5.7190   -1.7930    3.7040 C   0  0  0  0  0  0  0  0  0  0  0  0
    6.2270   -1.2650    4.8950 C   0  0  0  0  0  0  0  0  0  0  0  0
    5.4070   -1.1770    6.0060 C   0  0  0  0  0  0  0  0  0  0  0  0
    4.0860   -1.6160    5.9260 C   0  0  0  0  0  0  0  0  0  0  0  0
    6.6270   -1.8910    2.4930 C   0  0  0  0  0  0  0  0  0  0  0  0
    5.7590   -1.8090    1.2310 C   0  0  1  0  0  0  0  0  0  0  0  0
   -1.1480   -5.1920    2.2990 O   0  0  0  0  0  0  0  0  0  0  0  0
   -0.6830   -6.0160   -0.0730 O   0  0  0  0  0  0  0  0  0  0  0  0
   -1.0860   -2.2530    6.6670 C   0  0  0  0  0  0  0  0  0  0  0  0
    6.5590   -1.4690   -0.0460 C   0  0  0  0  0  0  0  0  0  0  0  0
   -1.3190   -3.3770    7.6700 C   0  0  0  0  0  0  0  0  0  0  0  0
    6.7860    0.0450   -0.2010 C   0  0  0  0  0  0  0  0  0  0  0  0
    5.5090    0.7610   -0.6780 C   0  0  0  0  0  0  0  0  0  0  0  0
    5.5250   -4.2590   -0.7610 C   0  0  0  0  0  0  0  0  0  0  0  0
   -2.1030   -3.1190    3.9160 C   0  0  0  0  0  0  0  0  0  0  0  0
   -2.0810    2.4930    3.4740 C   0  0  0  0  0  0  0  0  0  0  0  0
   -1.9000    3.6870    4.0650 N   0  0  0  0  0  0  0  0  0  0  0  0
   -0.6370    3.9600    4.4870 C   0  0  0  0  0  0  0  0  0  0  0  0
    0.4300    3.0830    4.3280 C   0  0  0  0  0  0  0  0  0  0  0  0
    0.2110    1.8570    3.6980 C   0  0  0  0  0  0  0  0  0  0  0  0
   -1.0850    1.5520    3.2750 C   0  0  0  0  0  0  0  0  0  0  0  0
    1.7610    3.4370    4.8390 C   0  0  0  0  0  0  0  0  0  0  0  0
    1.9560    4.4780    5.4520 O   0  0  0  0  0  0  0  0  0  0  0  0
   -1.3540    0.2530    2.6290 C   0  0  0  0  0  0  0  0  0  0  0  0
   -0.7100   -0.0250    1.6200 O   0  0  0  0  0  0  0  0  0  0  0  0
   -2.3910   -0.6460    3.2820 C   0  0  0  0  0  0  0  0  0  0  0  0
   -3.3530    2.3100    3.0450 O   0  0  0  0  0  0  0  0  0  0  0  0
   -2.3850   -2.1000    2.7900 C   0  0  0  0  0  0  0  0  0  0  0  0
   -6.2470   -3.0210   -2.3640 C   0  0  0  0  0  0  0  0  0  0  0  0
   -6.3720   -1.6510   -2.1840 C   0  0  0  0  0  0  0  0  0  0  0  0
   -1.5390   -2.7930   -1.2580 C   0  0  0  0  0  0  0  0  0  0  0  0
   -1.6420   -1.4120   -1.1560 C   0  0  0  0  0  0  0  0  0  0  0  0
   -5.0220   -3.6700   -2.1920 C   0  0  0  0  0  0  0  0  0  0  0  0
   -5.2530   -0.8700   -1.8640 C   0  0  0  0  0  0  0  0  0  0  0  0
   -2.6500   -3.5970   -1.4900 C   0  0  0  0  0  0  0  0  0  0  0  0
   -2.8500   -0.7560   -1.3390 C   0  0  0  0  0  0  0  0  0  0  0  0
   -3.8890   -2.9390   -1.7730 C   0  0  0  0  0  0  0  0  0  0  0  0
   -4.0010   -1.5120   -1.6540 C   0  0  0  0  0  0  0  0  0  0  0  0
   -4.9410   -5.1520   -2.4810 C   0  0  0  0  0  0  0  0  0  0  0  0
   -3.5020   -5.6840   -2.5810 C   0  0  2  0  0  0  0  0  0  0  0  0
   -2.6330   -5.1430   -1.4000 C   0  0  2  0  0  0  0  0  0  0  0  0
   -5.3750    0.6490   -1.6910 C   0  0  1  0  0  0  0  0  0  0  0  0
   -4.0350    1.3060   -2.0600 C   0  0  0  0  0  0  0  0  0  0  0  0
   -2.9140    0.7420   -1.2100 C   0  0  0  0  0  0  0  0  0  0  0  0
   -3.3010   -5.5540   -0.0810 C   0  0  0  0  0  0  0  0  0  0  0  0
   -3.7760   -6.6690    0.1300 O   0  0  0  0  0  0  0  0  0  0  0  0
   -0.4860   -0.7330   -0.8640 O   0  0  0  0  0  0  0  0  0  0  0  0
   -7.3390   -3.7640   -2.7210 O   0  0  0  0  0  0  0  0  0  0  0  0
   -0.2860   -3.3070   -1.1420 O   0  0  0  0  0  0  0  0  0  0  0  0
   -2.8940   -5.4000   -3.9650 C   0  0  0  0  0  0  0  0  0  0  0  0
   -6.4970    1.3380   -2.5040 C   0  0  0  0  0  0  0  0  0  0  0  0
   -7.7690    1.5420   -1.6860 C   0  0  0  0  0  0  0  0  0  0  0  0
   -1.2510   -5.8870   -1.4020 C   0  0  0  0  0  0  0  0  0  0  0  0
   -0.1450   10.1440   -0.3920 H   0  0  0  0  0  0  0  0  0  0  0  0
    1.9770   10.1180    0.7850 H   0  0  0  0  0  0  0  0  0  0  0  0
   -3.9610    9.0850   -2.9850 H   0  0  0  0  0  0  0  0  0  0  0  0
   -2.2800   10.1940   -1.6060 H   0  0  0  0  0  0  0  0  0  0  0  0
    6.3070    6.4770    2.4330 H   0  0  0  0  0  0  0  0  0  0  0  0
    6.0390    8.8860    2.8910 H   0  0  0  0  0  0  0  0  0  0  0  0
    4.0900   10.1060    2.0150 H   0  0  0  0  0  0  0  0  0  0  0  0
   -4.7750    7.0820   -4.1680 H   0  0  0  0  0  0  0  0  0  0  0  0
   -0.2760    3.4180   -2.8970 H   0  0  0  0  0  0  0  0  0  0  0  0
    1.8650    3.3990   -1.7690 H   0  0  0  0  0  0  0  0  0  0  0  0
    5.6840    4.5700    1.0770 H   0  0  0  0  0  0  0  0  0  0  0  0
    4.7390    4.8500   -1.1120 H   0  0  0  0  0  0  0  0  0  0  0  0
   -3.2020    3.0460   -4.7850 H   0  0  0  0  0  0  0  0  0  0  0  0
   -5.2880    5.1860   -5.2800 H   0  0  0  0  0  0  0  0  0  0  0  0
    3.3800    2.3670    0.0120 H   0  0  0  0  0  0  0  0  0  0  0  0
    3.8910    2.6660   -1.6450 H   0  0  0  0  0  0  0  0  0  0  0  0
    6.2900    2.7660   -0.8950 H   0  0  0  0  0  0  0  0  0  0  0  0
    5.7640    2.3510    0.7370 H   0  0  0  0  0  0  0  0  0  0  0  0
    4.0800    3.0640    2.2030 H   0  0  0  0  0  0  0  0  0  0  0  0
    4.2560    4.5270    3.1670 H   0  0  0  0  0  0  0  0  0  0  0  0
    2.8220    4.3070    2.1660 H   0  0  0  0  0  0  0  0  0  0  0  0
    1.3970   -1.5640    6.2840 H   0  0  0  0  0  0  0  0  0  0  0  0
    1.5760   -3.3150    6.5590 H   0  0  0  0  0  0  0  0  0  0  0  0
    1.3360   -6.6160   -1.7250 H   0  0  0  0  0  0  0  0  0  0  0  0
    3.5390   -5.6600   -1.6100 H   0  0  0  0  0  0  0  0  0  0  0  0
    7.2600   -0.9290    4.9580 H   0  0  0  0  0  0  0  0  0  0  0  0
    5.7930   -0.7720    6.9390 H   0  0  0  0  0  0  0  0  0  0  0  0
    3.4900   -1.5370    6.8330 H   0  0  0  0  0  0  0  0  0  0  0  0
    7.1860   -2.8320    2.5300 H   0  0  0  0  0  0  0  0  0  0  0  0
    7.3480   -1.0630    2.5060 H   0  0  0  0  0  0  0  0  0  0  0  0
    5.1160   -0.9260    1.3670 H   0  0  0  0  0  0  0  0  0  0  0  0
   -1.1360   -5.8780    1.6030 H   0  0  0  0  0  0  0  0  0  0  0  0
   -0.6330   -1.3970    7.1810 H   0  0  0  0  0  0  0  0  0  0  0  0
   -2.0530   -1.8800    6.3230 H   0  0  0  0  0  0  0  0  0  0  0  0
    6.0300   -1.7940   -0.9460 H   0  0  0  0  0  0  0  0  0  0  0  0
    7.5270   -1.9820   -0.0270 H   0  0  0  0  0  0  0  0  0  0  0  0
   -1.9880   -3.0410    8.4700 H   0  0  0  0  0  0  0  0  0  0  0  0
   -1.7840   -4.2440    7.1880 H   0  0  0  0  0  0  0  0  0  0  0  0
   -0.3810   -3.7060    8.1280 H   0  0  0  0  0  0  0  0  0  0  0  0
    7.5810    0.2160   -0.9390 H   0  0  0  0  0  0  0  0  0  0  0  0
    7.1360    0.4660    0.7460 H   0  0  0  0  0  0  0  0  0  0  0  0
    4.6170    0.3020   -0.2390 H   0  0  0  0  0  0  0  0  0  0  0  0
    5.4110    0.6370   -1.7650 H   0  0  0  0  0  0  0  0  0  0  0  0
    5.5610   -5.3400   -0.9220 H   0  0  0  0  0  0  0  0  0  0  0  0
    6.5330   -4.0080   -0.4260 H   0  0  0  0  0  0  0  0  0  0  0  0
    5.3140   -3.7650   -1.7150 H   0  0  0  0  0  0  0  0  0  0  0  0
   -2.4720   -4.1070    3.6290 H   0  0  0  0  0  0  0  0  0  0  0  0
   -2.7560   -2.8750    4.7580 H   0  0  0  0  0  0  0  0  0  0  0  0
   -0.5090    4.9260    4.9670 H   0  0  0  0  0  0  0  0  0  0  0  0
    1.0190    1.1470    3.5430 H   0  0  0  0  0  0  0  0  0  0  0  0
    2.5760    2.7190    4.6480 H   0  0  0  0  0  0  0  0  0  0  0  0
   -2.2190   -0.6060    4.3650 H   0  0  0  0  0  0  0  0  0  0  0  0
   -3.3840   -0.2180    3.0910 H   0  0  0  0  0  0  0  0  0  0  0  0
   -3.7410    3.1790    3.2680 H   0  0  0  0  0  0  0  0  0  0  0  0
   -3.3820   -2.3240    2.3930 H   0  0  0  0  0  0  0  0  0  0  0  0
   -1.6970   -2.2410    1.9570 H   0  0  0  0  0  0  0  0  0  0  0  0
   -7.3450   -1.1930   -2.3220 H   0  0  0  0  0  0  0  0  0  0  0  0
   -5.4640   -5.3760   -3.4200 H   0  0  0  0  0  0  0  0  0  0  0  0
   -5.4800   -5.6800   -1.6860 H   0  0  0  0  0  0  0  0  0  0  0  0
   -3.5740   -6.7800   -2.5040 H   0  0  0  0  0  0  0  0  0  0  0  0
   -5.5560    0.8270   -0.6220 H   0  0  0  0  0  0  0  0  0  0  0  0
   -4.0850    2.3910   -1.9000 H   0  0  0  0  0  0  0  0  0  0  0  0
   -3.8160    1.1430   -3.1250 H   0  0  0  0  0  0  0  0  0  0  0  0
   -1.9750    1.2000   -1.5370 H   0  0  0  0  0  0  0  0  0  0  0  0
   -3.0640    0.9980   -0.1540 H   0  0  0  0  0  0  0  0  0  0  0  0
   -3.2810   -4.7990    0.7270 H   0  0  0  0  0  0  0  0  0  0  0  0
   -0.6210   -0.3510    0.0390 H   0  0  0  0  0  0  0  0  0  0  0  0
   -8.0970   -3.1760   -2.8490 H   0  0  0  0  0  0  0  0  0  0  0  0
    0.2970   -2.5390   -0.9670 H   0  0  0  0  0  0  0  0  0  0  0  0
   -3.5330   -5.8130   -4.7560 H   0  0  0  0  0  0  0  0  0  0  0  0
   -2.7810   -4.3300   -4.1640 H   0  0  0  0  0  0  0  0  0  0  0  0
   -1.9110   -5.8690   -4.0710 H   0  0  0  0  0  0  0  0  0  0  0  0
   -6.7220    0.7850   -3.4240 H   0  0  0  0  0  0  0  0  0  0  0  0
   -6.1740    2.3350   -2.8280 H   0  0  0  0  0  0  0  0  0  0  0  0
   -7.5760    2.2240   -0.8520 H   0  0  0  0  0  0  0  0  0  0  0  0
   -8.1550    0.6080   -1.2740 H   0  0  0  0  0  0  0  0  0  0  0  0
   -8.5480    1.9900   -2.3100 H   0  0  0  0  0  0  0  0  0  0  0  0
   -0.5730   -5.4300   -2.1310 H   0  0  0  0  0  0  0  0  0  0  0  0
   -1.4030   -6.9230   -1.7290 H   0  0  0  0  0  0  0  0  0  0  0  0
  1  2  1  0
  1  5  2  0
  1 11  1  0
  2  6  2  0
  2 14  1  0
  3  4  2  0
  3  7  1  0
  3 15  1  0
  4  8  1  0
  4 18  1  0
  5  9  1  0
  5 24  1  0
  6 10  1  0
  6106  1  0
  7  9  2  0
  7 26  1  0
  8 10  2  0
  8107  1  0
  9 10  1  0
 11 12  2  0
 11 19  1  0
 12 13  1  0
 12 22  1  0
 13 14  2  0
 13108  1  0
 14109  1  0
 15 16  2  0
 15 27  1  0
 16 17  1  0
 16110  1  0
 17 18  2  0
 17111  1  0
 18112  1  0
 19 20  2  0
 19 23  1  0
 20 21  1  0
 20 29  1  0
 21 22  2  0
 21 30  1  0
 22113  1  0
 23 24  2  0
 23114  1  0
 24 25  1  0
 25 26  2  0
 25115  1  0
 26 28  1  0
 27 28  1  0
 27 33  1  0
 27116  1  6
 28 31  1  0
 28117  1  6
 29118  1  0
 30119  1  0
 31 32  1  0
 31120  1  0
 31121  1  0
 32 65  1  0
 32122  1  0
 32123  1  0
 33124  1  0
 33125  1  0
 33126  1  0
 34 37  2  0
 34 38  1  0
 34 47  1  0
 35 39  2  0
 35 41  1  0
 35 53  1  0
 36 40  2  0
 36 42  1  0
 36 61  1  0
 37 43  1  0
 37 50  1  0
 38 44  2  0
 38 59  1  0
 39 43  1  0
 39 52  1  0
 40 44  1  0
 40 67  1  0
 41 45  2  0
 41 56  1  0
 42 45  1  0
 42127  1  0
 42128  1  0
 43 46  2  0
 44 46  1  0
 45 46  1  0
 47 48  2  0
 47 60  1  0
 48 49  1  0
 48129  1  0
 49 50  2  0
 49130  1  0
 50 51  1  0
 51 52  2  0
 51 66  1  0
 52 58  1  0
 53 54  2  0
 53 57  1  0
 54 55  1  0
 54131  1  0
 55 56  2  0
 55132  1  0
 56133  1  0
 57 58  1  0
 57134  1  0
 57135  1  0
 58 62  1  0
 58136  1  1
 59137  1  0
 60105  1  0
 61 63  1  0
 61138  1  0
 61139  1  0
 62 64  1  0
 62140  1  0
 62141  1  0
 63142  1  0
 63143  1  0
 63144  1  0
 64 65  1  0
 64145  1  0
 64146  1  0
 65147  1  0
 65148  1  0
 66149  1  0
 66150  1  0
 66151  1  0
 67 80  1  0
 67152  1  0
 67153  1  0
 68 69  2  0
 68 73  1  0
 68 79  1  0
 69 70  1  0
 70 71  2  0
 70154  1  0
 71 72  1  0
 71 74  1  0
 72 73  2  0
 72155  1  0
 73 76  1  0
 74 75  2  0
 74156  1  0
 76 77  2  0
 76 78  1  0
 78 80  1  0
 78157  1  0
 78158  1  0
 79159  1  0
 80160  1  0
 80161  1  0
 81 82  2  0
 81 85  1  0
 81100  1  0
 82 86  1  0
 82162  1  0
 83 84  1  0
 83 87  2  0
 83101  1  0
 84 88  2  0
 84 99  1  0
 85 89  2  0
 85 91  1  0
 86 90  2  0
 86 94  1  0
 87 89  1  0
 87 93  1  0
 88 90  1  0
 88 96  1  0
 89 90  1  0
 91 92  1  0
 91163  1  0
 91164  1  0
 92 93  1  0
 92102  1  0
 92165  1  1
 93 97  1  0
 93105  1  1
 94 95  1  0
 94103  1  0
 94166  1  1
 95 96  1  0
 95167  1  0
 95168  1  0
 96169  1  0
 96170  1  0
 97 98  2  0
 97171  1  0
 99172  1  0
100173  1  0
101174  1  0
102175  1  0
102176  1  0
102177  1  0
103104  1  0
103178  1  0
103179  1  0
104180  1  0
104181  1  0
104182  1  0
105183  1  0
105184  1  0
M  END
