
     RDKit          3D

210234  0  0  0  0  0  0  0  0999 V2000
   -1.6220   -4.0570   -4.0570 C   0  0  0  0  0  0  0  0  0  0  0  0
   -0.8020   -2.9800   -3.6930 C   0  0  0  0  0  0  0  0  0  0  0  0
   -0.3330    4.4170   -0.9460 C   0  0  0  0  0  0  0  0  0  0  0  0
   -3.0180   -3.8870   -4.0420 C   0  0  0  0  0  0  0  0  0  0  0  0
   -1.3130    4.7230   -1.8750 C   0  0  0  0  0  0  0  0  0  0  0  0
   -0.3680    3.0680   -0.7310 N   0  0  0  0  0  0  0  0  0  0  0  0
   -1.4100   -1.7730   -3.3210 C   0  0  0  0  0  0  0  0  0  0  0  0
   -5.0840   -2.4740   -3.8200 C   0  0  0  0  0  0  0  0  0  0  0  0
   -5.6410   -1.1860   -3.6190 C   0  0  0  0  0  0  0  0  0  0  0  0
   -3.4350    3.2590   -2.4970 C   0  0  0  0  0  0  0  0  0  0  0  0
   -5.1410    1.2980   -2.9180 C   0  0  2  0  0  0  0  0  0  0  0  0
   -1.7230    1.1560   -1.6320 C   0  0  0  0  0  0  0  0  0  0  0  0
   -3.6540   -2.6680   -3.6940 C   0  0  0  0  0  0  0  0  0  0  0  0
   -2.1620    3.5650   -1.9610 C   0  0  0  0  0  0  0  0  0  0  0  0
   -1.4090    2.5080   -1.4350 C   0  0  0  0  0  0  0  0  0  0  0  0
   -4.7960   -0.1710   -3.1530 C   0  0  0  0  0  0  0  0  0  0  0  0
   -3.7740    1.9050   -2.6340 C   0  0  0  0  0  0  0  0  0  0  0  0
   -2.8160   -1.5980   -3.2720 C   0  0  0  0  0  0  0  0  0  0  0  0
   -2.8550    0.8690   -2.3860 C   0  0  0  0  0  0  0  0  0  0  0  0
   -3.4190   -0.3840   -2.8980 C   0  0  0  0  0  0  0  0  0  0  0  0
   -1.0300   -5.2670   -4.4500 C   0  0  0  0  0  0  0  0  0  0  0  0
    0.3610   -5.4100   -4.4790 C   0  0  0  0  0  0  0  0  0  0  0  0
    1.1850   -4.3420   -4.1230 C   0  0  0  0  0  0  0  0  0  0  0  0
    0.5970   -3.1370   -3.7190 C   0  0  0  0  0  0  0  0  0  0  0  0
   -5.9960   -3.5000   -4.1970 C   0  0  0  0  0  0  0  0  0  0  0  0
   -7.3600   -3.2710   -4.4110 C   0  0  0  0  0  0  0  0  0  0  0  0
   -7.8480   -1.9880   -4.2770 C   0  0  0  0  0  0  0  0  0  0  0  0
   -7.0050   -0.9540   -3.8950 C   0  0  0  0  0  0  0  0  0  0  0  0
   -4.4240    4.3100   -2.8050 C   0  0  0  0  0  0  0  0  0  0  0  0
   -5.1030    4.2440   -3.8240 O   0  0  0  0  0  0  0  0  0  0  0  0
   -4.6750    5.3870   -1.7780 C   0  0  0  0  0  0  0  0  0  0  0  0
   -0.9500    0.2070   -1.0300 O   0  0  0  0  0  0  0  0  0  0  0  0
   -9.1560   -1.6920   -4.5040 O   0  0  0  0  0  0  0  0  0  0  0  0
   -1.3250    5.9670   -2.7220 C   0  0  0  0  0  0  0  0  0  0  0  0
   -6.1410    1.5560   -1.7560 C   0  0  0  0  0  0  0  0  0  0  0  0
    2.6800   -4.5000   -4.1300 C   0  0  0  0  0  0  0  0  0  0  0  0
    3.1920    3.1410   -2.4860 C   0  0  0  0  0  0  0  0  0  0  0  0
    3.8200    4.2790   -1.9510 C   0  0  0  0  0  0  0  0  0  0  0  0
    5.1970    0.8440    1.3630 C   0  0  0  0  0  0  0  0  0  0  0  0
    6.2220    1.8010    1.3820 C   0  0  0  0  0  0  0  0  0  0  0  0
    3.5500    1.8640   -1.9690 C   0  0  0  0  0  0  0  0  0  0  0  0
    4.9570    4.1050   -1.1230 C   0  0  0  0  0  0  0  0  0  0  0  0
    4.4120    0.6980    0.1820 C   0  0  0  0  0  0  0  0  0  0  0  0
    6.4250    2.5890    0.2350 C   0  0  0  0  0  0  0  0  0  0  0  0
    4.4190    1.7370   -0.8270 C   0  0  0  0  0  0  0  0  0  0  0  0
    5.3070    2.8100   -0.6120 C   0  0  0  0  0  0  0  0  0  0  0  0
    2.1280    3.2970   -3.4200 C   0  0  0  0  0  0  0  0  0  0  0  0
    1.5140    4.5560   -3.6090 C   0  0  0  0  0  0  0  0  0  0  0  0
    2.1260    5.6740   -3.0250 C   0  0  0  0  0  0  0  0  0  0  0  0
    3.2690    5.5510   -2.2250 C   0  0  0  0  0  0  0  0  0  0  0  0
    4.9780    0.0770    2.5310 C   0  0  0  0  0  0  0  0  0  0  0  0
    5.7440    0.2910    3.6820 C   0  0  0  0  0  0  0  0  0  0  0  0
    6.7530    1.2500    3.6920 C   0  0  0  0  0  0  0  0  0  0  0  0
    7.0180    1.9990    2.5490 C   0  0  0  0  0  0  0  0  0  0  0  0
    1.6220    2.1830   -4.1200 C   0  0  0  0  0  0  0  0  0  0  0  0
    0.4920    2.2890   -4.9310 C   0  0  0  0  0  0  0  0  0  0  0  0
   -0.2010    3.4910   -4.9880 C   0  0  0  0  0  0  0  0  0  0  0  0
    0.2700    4.6200   -4.2930 C   0  0  0  0  0  0  0  0  0  0  0  0
    2.8510    0.6630   -2.5840 C   0  0  0  0  0  0  0  0  0  0  0  0
    2.3750    0.8880   -4.0190 C   0  0  0  0  0  0  0  0  0  0  0  0
    5.6780    5.3750   -0.6480 C   0  0  2  0  0  0  0  0  0  0  0  0
    4.6630    6.4890   -0.3700 C   0  0  0  0  0  0  0  0  0  0  0  0
    3.8360    6.8040   -1.6080 C   0  0  0  0  0  0  0  0  0  0  0  0
    3.4130   -0.4500    0.1560 C   0  0  0  0  0  0  0  0  0  0  0  0
    3.6440   -1.5270    1.2170 C   0  0  0  0  0  0  0  0  0  0  0  0
    3.8440   -0.9140    2.5860 C   0  0  0  0  0  0  0  0  0  0  0  0
    7.6980    3.1600   -0.0110 N   0  0  0  0  0  0  0  0  0  0  0  0
    8.7410    2.9730    1.0560 C   0  0  1  0  0  0  0  0  0  0  0  0
    8.0440    3.1200    2.4380 C   0  0  2  0  0  0  0  0  0  0  0  0
    6.6810    5.8800   -1.6650 C   0  0  0  0  0  0  0  0  0  0  0  0
    7.6060    6.6530   -1.3990 O   0  0  0  0  0  0  0  0  0  0  0  0
    7.4580    1.4540    4.8390 O   0  0  0  0  0  0  0  0  0  0  0  0
    9.5280    1.6540    0.7980 C   0  0  0  0  0  0  0  0  0  0  0  0
   10.5350    1.2330    1.8640 C   0  0  0  0  0  0  0  0  0  0  0  0
    8.1710    3.1190   -1.3970 C   0  0  0  0  0  0  0  0  0  0  0  0
   11.3880    0.0580    1.3960 C   0  0  0  0  0  0  0  0  0  0  0  0
    9.0080    3.4020    3.5900 C   0  0  0  0  0  0  0  0  0  0  0  0
   -0.6870    5.7940   -4.1360 C   0  0  0  0  0  0  0  0  0  0  0  0
   -3.2770   -1.0690    5.3050 C   0  0  0  0  0  0  0  0  0  0  0  0
   -4.0650   -0.9670    4.1480 C   0  0  0  0  0  0  0  0  0  0  0  0
   -2.0670   -5.8000    4.2930 C   0  0  0  0  0  0  0  0  0  0  0  0
   -2.8920   -5.7980    3.1570 C   0  0  0  0  0  0  0  0  0  0  0  0
   -2.4740   -2.2180    5.4940 C   0  0  0  0  0  0  0  0  0  0  0  0
   -4.0150   -2.0350    3.1930 C   0  0  0  0  0  0  0  0  0  0  0  0
   -1.9160   -4.5860    5.0160 C   0  0  0  0  0  0  0  0  0  0  0  0
   -3.5100   -4.5800    2.7200 C   0  0  0  0  0  0  0  0  0  0  0  0
   -2.5870   -3.3680    4.6460 C   0  0  0  0  0  0  0  0  0  0  0  0
   -3.3900   -3.3240    3.4730 C   0  0  0  0  0  0  0  0  0  0  0  0
   -3.2570    0.0000    6.2510 C   0  0  0  0  0  0  0  0  0  0  0  0
   -4.1100    1.1250    6.1100 C   0  0  0  0  0  0  0  0  0  0  0  0
   -4.9640    1.1960    4.9830 C   0  0  0  0  0  0  0  0  0  0  0  0
   -4.8660    0.2050    3.9730 C   0  0  0  0  0  0  0  0  0  0  0  0
   -1.4620   -7.0290    4.6800 C   0  0  0  0  0  0  0  0  0  0  0  0
   -1.6530   -8.2160    3.9790 C   0  0  0  0  0  0  0  0  0  0  0  0
   -2.4840   -8.2210    2.8790 C   0  0  0  0  0  0  0  0  0  0  0  0
   -3.1030   -7.0290    2.4750 C   0  0  0  0  0  0  0  0  0  0  0  0
   -2.3680   -0.0530    7.3530 C   0  0  0  0  0  0  0  0  0  0  0  0
   -2.3270    0.9700    8.3030 C   0  0  0  0  0  0  0  0  0  0  0  0
   -3.1760    2.0580    8.1750 C   0  0  0  0  0  0  0  0  0  0  0  0
   -4.0530    2.1400    7.0950 C   0  0  0  0  0  0  0  0  0  0  0  0
   -1.4990   -1.1280    7.4750 C   0  0  0  0  0  0  0  0  0  0  0  0
   -1.5530   -2.1880    6.5630 C   0  0  0  0  0  0  0  0  0  0  0  0
   -0.5190   -3.2690    6.6670 C   0  0  0  0  0  0  0  0  0  0  0  0
   -1.1290   -4.6080    6.3210 C   0  0  0  0  0  0  0  0  0  0  0  0
   -4.6380   -1.7420    1.8370 C   0  0  0  0  0  0  0  0  0  0  0  0
   -4.8680   -0.2580    1.5260 C   0  0  2  0  0  0  0  0  0  0  0  0
   -5.6440    0.3610    2.6800 C   0  0  0  0  0  0  0  0  0  0  0  0
   -4.4400   -4.7390    1.5080 C   0  0  0  0  0  0  0  0  0  0  0  0
   -4.1220   -5.8400    0.5730 N   0  0  0  0  0  0  0  0  0  0  0  0
   -4.0740   -7.0870    1.3240 C   0  0  0  0  0  0  0  0  0  0  0  0
   -3.1460    3.1490    9.1690 C   0  0  0  0  0  0  0  0  0  0  0  0
   -2.3190    3.1930   10.0740 O   0  0  0  0  0  0  0  0  0  0  0  0
   -2.9090   -5.5510   -0.2120 C   0  0  0  0  0  0  0  0  0  0  0  0
   -2.6210   -6.5950   -1.2850 C   0  0  0  0  0  0  0  0  0  0  0  0
   -5.5740   -0.1030    0.1600 C   0  0  0  0  0  0  0  0  0  0  0  0
   -5.6560    1.3570   -0.3040 C   0  0  0  0  0  0  0  0  0  0  0  0
   -5.9260    2.3540    4.8330 C   0  0  0  0  0  0  0  0  0  0  0  0
    0.4890    5.0020   -0.5580 H   0  0  0  0  0  0  0  0  0  0  0  0
   -3.6140   -4.7350   -4.3690 H   0  0  0  0  0  0  0  0  0  0  0  0
    0.3300    2.5280   -0.2330 H   0  0  0  0  0  0  0  0  0  0  0  0
   -0.7540   -0.9280   -3.1280 H   0  0  0  0  0  0  0  0  0  0  0  0
   -5.5290    1.7040   -3.8620 H   0  0  0  0  0  0  0  0  0  0  0  0
   -1.6500   -6.1130   -4.7400 H   0  0  0  0  0  0  0  0  0  0  0  0
    0.7890   -6.3620   -4.7870 H   0  0  0  0  0  0  0  0  0  0  0  0
    1.2380   -2.3070   -3.4270 H   0  0  0  0  0  0  0  0  0  0  0  0
   -5.6570   -4.5230   -4.3370 H   0  0  0  0  0  0  0  0  0  0  0  0
   -8.0020   -4.0940   -4.7090 H   0  0  0  0  0  0  0  0  0  0  0  0
   -7.4400    0.0390   -3.8150 H   0  0  0  0  0  0  0  0  0  0  0  0
   -4.5960    6.3670   -2.2550 H   0  0  0  0  0  0  0  0  0  0  0  0
   -3.9730    5.3410   -0.9420 H   0  0  0  0  0  0  0  0  0  0  0  0
   -5.6840    5.2580   -1.3730 H   0  0  0  0  0  0  0  0  0  0  0  0
   -1.4690   -0.6180   -0.9960 H   0  0  0  0  0  0  0  0  0  0  0  0
   -9.6510   -2.5230   -4.6080 H   0  0  0  0  0  0  0  0  0  0  0  0
   -2.3450    6.3490   -2.8490 H   0  0  0  0  0  0  0  0  0  0  0  0
   -0.7840    6.7640   -2.1890 H   0  0  0  0  0  0  0  0  0  0  0  0
   -7.0580    0.9760   -1.8940 H   0  0  0  0  0  0  0  0  0  0  0  0
   -6.4560    2.6060   -1.8300 H   0  0  0  0  0  0  0  0  0  0  0  0
    3.1650   -3.5660   -4.4350 H   0  0  0  0  0  0  0  0  0  0  0  0
    2.9890   -5.2740   -4.8430 H   0  0  0  0  0  0  0  0  0  0  0  0
    3.0350   -4.7790   -3.1320 H   0  0  0  0  0  0  0  0  0  0  0  0
    1.7000    6.6620   -3.1720 H   0  0  0  0  0  0  0  0  0  0  0  0
    5.5320   -0.2910    4.5750 H   0  0  0  0  0  0  0  0  0  0  0  0
    0.1170    1.4270   -5.4780 H   0  0  0  0  0  0  0  0  0  0  0  0
   -1.1470    3.5240   -5.5270 H   0  0  0  0  0  0  0  0  0  0  0  0
    1.9860    0.4010   -1.9640 H   0  0  0  0  0  0  0  0  0  0  0  0
    3.5470   -0.1780   -2.6310 H   0  0  0  0  0  0  0  0  0  0  0  0
    3.2340    0.9330   -4.7010 H   0  0  0  0  0  0  0  0  0  0  0  0
    1.7530    0.0430   -4.3330 H   0  0  0  0  0  0  0  0  0  0  0  0
    6.2140    5.1970    0.2890 H   0  0  0  0  0  0  0  0  0  0  0  0
    5.1720    7.4000   -0.0330 H   0  0  0  0  0  0  0  0  0  0  0  0
    4.0000    6.1740    0.4470 H   0  0  0  0  0  0  0  0  0  0  0  0
    4.4440    7.3210   -2.3600 H   0  0  0  0  0  0  0  0  0  0  0  0
    3.0270    7.4860   -1.3200 H   0  0  0  0  0  0  0  0  0  0  0  0
    2.4070   -0.0290    0.2840 H   0  0  0  0  0  0  0  0  0  0  0  0
    3.4670   -0.9830   -0.7930 H   0  0  0  0  0  0  0  0  0  0  0  0
    4.5300   -2.1170    0.9470 H   0  0  0  0  0  0  0  0  0  0  0  0
    2.7940   -2.2180    1.2340 H   0  0  0  0  0  0  0  0  0  0  0  0
    2.9350   -0.3980    2.9200 H   0  0  0  0  0  0  0  0  0  0  0  0
    4.0640   -1.7100    3.3080 H   0  0  0  0  0  0  0  0  0  0  0  0
    9.4500    3.8060    0.9460 H   0  0  0  0  0  0  0  0  0  0  0  0
    7.4400    4.0430    2.3900 H   0  0  0  0  0  0  0  0  0  0  0  0
    6.5010    5.5920   -2.7150 H   0  0  0  0  0  0  0  0  0  0  0  0
    7.0930    0.8930    5.5430 H   0  0  0  0  0  0  0  0  0  0  0  0
    8.8360    0.8210    0.6200 H   0  0  0  0  0  0  0  0  0  0  0  0
   10.0860    1.7710   -0.1410 H   0  0  0  0  0  0  0  0  0  0  0  0
   11.1910    2.0700    2.1190 H   0  0  0  0  0  0  0  0  0  0  0  0
   10.0140    0.9090    2.7680 H   0  0  0  0  0  0  0  0  0  0  0  0
    8.4780    2.1040   -1.6740 H   0  0  0  0  0  0  0  0  0  0  0  0
    9.0340    3.7850   -1.5180 H   0  0  0  0  0  0  0  0  0  0  0  0
    7.4210    3.4260   -2.1300 H   0  0  0  0  0  0  0  0  0  0  0  0
   10.7640   -0.8280    1.2210 H   0  0  0  0  0  0  0  0  0  0  0  0
   12.1310   -0.2010    2.1560 H   0  0  0  0  0  0  0  0  0  0  0  0
   11.9190    0.2940    0.4660 H   0  0  0  0  0  0  0  0  0  0  0  0
    8.4700    3.8700    4.4270 H   0  0  0  0  0  0  0  0  0  0  0  0
    9.5030    2.5140    3.9900 H   0  0  0  0  0  0  0  0  0  0  0  0
    9.7930    4.1070    3.2830 H   0  0  0  0  0  0  0  0  0  0  0  0
   -1.5020    5.6940   -4.8730 H   0  0  0  0  0  0  0  0  0  0  0  0
   -0.1810    6.7260   -4.4270 H   0  0  0  0  0  0  0  0  0  0  0  0
   -0.8270   -7.0960    5.5580 H   0  0  0  0  0  0  0  0  0  0  0  0
   -1.1610   -9.1350    4.3050 H   0  0  0  0  0  0  0  0  0  0  0  0
   -2.6570   -9.1460    2.3390 H   0  0  0  0  0  0  0  0  0  0  0  0
   -1.6350    0.9250    9.1440 H   0  0  0  0  0  0  0  0  0  0  0  0
   -4.6860    3.0210    7.0170 H   0  0  0  0  0  0  0  0  0  0  0  0
   -0.7680   -1.1500    8.2820 H   0  0  0  0  0  0  0  0  0  0  0  0
   -0.0880   -3.3190    7.6740 H   0  0  0  0  0  0  0  0  0  0  0  0
    0.2970   -3.0280    5.9720 H   0  0  0  0  0  0  0  0  0  0  0  0
   -0.2920   -5.3100    6.2820 H   0  0  0  0  0  0  0  0  0  0  0  0
   -1.8080   -4.9350    7.1180 H   0  0  0  0  0  0  0  0  0  0  0  0
   -5.5900   -2.2810    1.7630 H   0  0  0  0  0  0  0  0  0  0  0  0
   -3.9300   -2.0730    1.0710 H   0  0  0  0  0  0  0  0  0  0  0  0
   -3.8850    0.2320    1.4560 H   0  0  0  0  0  0  0  0  0  0  0  0
   -6.6370   -0.0990    2.7880 H   0  0  0  0  0  0  0  0  0  0  0  0
   -5.7790    1.4230    2.4520 H   0  0  0  0  0  0  0  0  0  0  0  0
   -4.4640   -3.8670    0.8720 H   0  0  0  0  0  0  0  0  0  0  0  0
   -5.4620   -4.8740    1.8900 H   0  0  0  0  0  0  0  0  0  0  0  0
   -5.0680   -7.3060    1.7330 H   0  0  0  0  0  0  0  0  0  0  0  0
   -3.8450   -7.9290    0.6640 H   0  0  0  0  0  0  0  0  0  0  0  0
   -3.9030    3.9440    9.0570 H   0  0  0  0  0  0  0  0  0  0  0  0
   -3.0490   -4.5930   -0.7340 H   0  0  0  0  0  0  0  0  0  0  0  0
   -2.0170   -5.4330    0.4160 H   0  0  0  0  0  0  0  0  0  0  0  0
   -3.4940   -6.7550   -1.9280 H   0  0  0  0  0  0  0  0  0  0  0  0
   -1.7890   -6.2600   -1.9120 H   0  0  0  0  0  0  0  0  0  0  0  0
   -2.3220   -7.5530   -0.8510 H   0  0  0  0  0  0  0  0  0  0  0  0
   -5.0190   -0.6960   -0.5700 H   0  0  0  0  0  0  0  0  0  0  0  0
   -6.5860   -0.5250    0.2090 H   0  0  0  0  0  0  0  0  0  0  0  0
   -6.3780    1.8740    0.3460 H   0  0  0  0  0  0  0  0  0  0  0  0
   -4.6990    1.8640   -0.1420 H   0  0  0  0  0  0  0  0  0  0  0  0
   -6.3960    2.6020    5.7920 H   0  0  0  0  0  0  0  0  0  0  0  0
   -5.4010    3.2330    4.4440 H   0  0  0  0  0  0  0  0  0  0  0  0
   -6.7690    2.1220    4.1760 H   0  0  0  0  0  0  0  0  0  0  0  0
  1  2  2  0
  1  4  1  0
  1 21  1  0
  2  7  1  0
  2 24  1  0
  3  5  2  0
  3  6  1  0
  3118  1  0
  4 13  2  0
  4119  1  0
  5 14  1  0
  5 34  1  0
  6 15  1  0
  6120  1  0
  7 18  2  0
  7121  1  0
  8  9  2  0
  8 13  1  0
  8 25  1  0
  9 16  1  0
  9 28  1  0
 10 14  2  0
 10 17  1  0
 10 29  1  0
 11 16  1  0
 11 17  1  0
 11 35  1  0
 11122  1  6
 12 15  2  0
 12 19  1  0
 12 32  1  0
 13 18  1  0
 14 15  1  0
 16 20  2  0
 17 19  2  0
 18 20  1  0
 19 20  1  0
 21 22  2  0
 21123  1  0
 22 23  1  0
 22124  1  0
 23 24  2  0
 23 36  1  0
 24125  1  0
 25 26  2  0
 25126  1  0
 26 27  1  0
 26127  1  0
 27 28  2  0
 27 33  1  0
 28128  1  0
 29 30  2  0
 29 31  1  0
 31129  1  0
 31130  1  0
 31131  1  0
 32132  1  0
 33133  1  0
 34 78  1  0
 34134  1  0
 34135  1  0
 35116  1  0
 35136  1  0
 35137  1  0
 36138  1  0
 36139  1  0
 36140  1  0
 37 38  1  0
 37 41  1  0
 37 47  2  0
 38 42  1  0
 38 50  2  0
 39 40  1  0
 39 43  2  0
 39 51  1  0
 40 44  2  0
 40 54  1  0
 41 45  2  0
 41 59  1  0
 42 46  2  0
 42 61  1  0
 43 45  1  0
 43 64  1  0
 44 46  1  0
 44 67  1  0
 45 46  1  0
 47 48  1  0
 47 55  1  0
 48 49  2  0
 48 58  1  0
 49 50  1  0
 49141  1  0
 50 63  1  0
 51 52  2  0
 51 66  1  0
 52 53  1  0
 52142  1  0
 53 54  2  0
 53 72  1  0
 54 69  1  0
 55 56  2  0
 55 60  1  0
 56 57  1  0
 56143  1  0
 57 58  2  0
 57144  1  0
 58 78  1  0
 59 60  1  0
 59145  1  0
 59146  1  0
 60147  1  0
 60148  1  0
 61 62  1  0
 61 70  1  0
 61149  1  1
 62 63  1  0
 62150  1  0
 62151  1  0
 63152  1  0
 63153  1  0
 64 65  1  0
 64154  1  0
 64155  1  0
 65 66  1  0
 65156  1  0
 65157  1  0
 66158  1  0
 66159  1  0
 67 68  1  0
 67 75  1  0
 68 69  1  0
 68 73  1  0
 68160  1  6
 69 77  1  0
 69161  1  6
 70 71  2  0
 70162  1  0
 72163  1  0
 73 74  1  0
 73164  1  0
 73165  1  0
 74 76  1  0
 74166  1  0
 74167  1  0
 75168  1  0
 75169  1  0
 75170  1  0
 76171  1  0
 76172  1  0
 76173  1  0
 77174  1  0
 77175  1  0
 77176  1  0
 78177  1  0
 78178  1  0
 79 80  1  0
 79 83  1  0
 79 89  2  0
 80 84  1  0
 80 92  2  0
 81 82  1  0
 81 85  2  0
 81 93  1  0
 82 86  2  0
 82 96  1  0
 83 87  2  0
 83102  1  0
 84 88  2  0
 84105  1  0
 85 87  1  0
 85104  1  0
 86 88  1  0
 86108  1  0
 87 88  1  0
 89 90  1  0
 89 97  1  0
 90 91  2  0
 90100  1  0
 91 92  1  0
 91117  1  0
 92107  1  0
 93 94  2  0
 93179  1  0
 94 95  1  0
 94180  1  0
 95 96  2  0
 95181  1  0
 96110  1  0
 97 98  2  0
 97101  1  0
 98 99  1  0
 98182  1  0
 99100  2  0
 99111  1  0
100183  1  0
101102  2  0
101184  1  0
102103  1  0
103104  1  0
103185  1  0
103186  1  0
104187  1  0
104188  1  0
105106  1  0
105189  1  0
105190  1  0
106107  1  0
106115  1  0
106191  1  6
107192  1  0
107193  1  0
108109  1  0
108194  1  0
108195  1  0
109110  1  0
109113  1  0
110196  1  0
110197  1  0
111112  2  0
111198  1  0
113114  1  0
113199  1  0
113200  1  0
114201  1  0
114202  1  0
114203  1  0
115116  1  0
115204  1  0
115205  1  0
116206  1  0
116207  1  0
117208  1  0
117209  1  0
117210  1  0
M  END
