
     RDKit          3D

211230  0  0  0  0  0  0  0  0999 V2000
    0.5310   -2.4910    2.2080 C   0  0  0  0  0  0  0  0  0  0  0  0
    1.6220   -2.6300    3.1210 C   0  0  0  0  0  0  0  0  0  0  0  0
   -1.1610   -6.9550    3.7930 C   0  0  0  0  0  0  0  0  0  0  0  0
   -0.0390   -7.0620    4.5900 C   0  0  0  0  0  0  0  0  0  0  0  0
   -0.4740   -3.5430    2.1080 C   0  0  0  0  0  0  0  0  0  0  0  0
    1.7850   -3.8880    3.7740 C   0  0  0  0  0  0  0  0  0  0  0  0
   -1.3220   -5.7970    3.0160 C   0  0  0  0  0  0  0  0  0  0  0  0
    0.8860   -6.0330    4.5920 C   0  0  0  0  0  0  0  0  0  0  0  0
   -0.3840   -4.7210    2.9520 C   0  0  0  0  0  0  0  0  0  0  0  0
    0.7620   -4.8740    3.7730 C   0  0  0  0  0  0  0  0  0  0  0  0
    0.5100   -1.3170    1.3800 C   0  0  0  0  0  0  0  0  0  0  0  0
    1.5370   -0.3700    1.4240 C   0  0  0  0  0  0  0  0  0  0  0  0
    2.4940   -0.4480    2.4110 C   0  0  0  0  0  0  0  0  0  0  0  0
    2.5020   -1.5120    3.3090 C   0  0  0  0  0  0  0  0  0  0  0  0
   -1.5300   -3.3790    0.9470 C   0  0  1  0  0  0  0  0  0  0  0  0
   -1.8200   -1.8610    0.7860 C   0  0  0  0  0  0  0  0  0  0  0  0
   -0.5930   -1.0810    0.3870 C   0  0  0  0  0  0  0  0  0  0  0  0
   -2.1550   -8.0730    3.8270 C   0  0  0  0  0  0  0  0  0  0  0  0
   -2.0640   -8.9370    4.6990 O   0  0  0  0  0  0  0  0  0  0  0  0
   -3.2720   -8.1390    2.8020 C   0  0  0  0  0  0  0  0  0  0  0  0
    1.5900    0.6710    0.5250 O   0  0  0  0  0  0  0  0  0  0  0  0
   -4.5800   -7.6450    3.4190 C   0  0  0  0  0  0  0  0  0  0  0  0
   -5.7310   -7.7200    2.4280 C   0  0  0  0  0  0  0  0  0  0  0  0
   -0.8470   -4.0150   -0.3100 C   0  0  0  0  0  0  0  0  0  0  0  0
   -2.9410   -3.9870    1.1030 C   0  0  0  0  0  0  0  0  0  0  0  0
    3.4590   -1.3420    4.4650 C   0  0  0  0  0  0  0  0  0  0  0  0
    3.1260   -4.2640    4.3860 C   0  0  0  0  0  0  0  0  0  0  0  0
    4.3590    4.8470   -3.5100 C   0  0  0  0  0  0  0  0  0  0  0  0
    3.6880    3.9690   -2.6340 C   0  0  0  0  0  0  0  0  0  0  0  0
    0.0610    5.1250   -6.1640 C   0  0  0  0  0  0  0  0  0  0  0  0
   -0.5520    4.3660   -5.1600 C   0  0  0  0  0  0  0  0  0  0  0  0
    3.7030    5.2590   -4.7070 C   0  0  0  0  0  0  0  0  0  0  0  0
    2.4400    3.4270   -3.0100 C   0  0  0  0  0  0  0  0  0  0  0  0
    1.4620    5.3830   -6.0480 C   0  0  0  0  0  0  0  0  0  0  0  0
    0.2870    3.8430   -4.1500 C   0  0  0  0  0  0  0  0  0  0  0  0
    2.3120    4.9230   -4.9680 C   0  0  0  0  0  0  0  0  0  0  0  0
    1.6860    4.0520   -4.0490 C   0  0  0  0  0  0  0  0  0  0  0  0
    5.6600    5.3180   -3.1620 C   0  0  0  0  0  0  0  0  0  0  0  0
    6.2060    5.0050   -1.9020 C   0  0  0  0  0  0  0  0  0  0  0  0
    5.5090    4.1790   -1.0240 C   0  0  0  0  0  0  0  0  0  0  0  0
    4.2610    3.6530   -1.3770 C   0  0  0  0  0  0  0  0  0  0  0  0
   -0.7490    5.6020   -7.2300 C   0  0  0  0  0  0  0  0  0  0  0  0
   -2.1180    5.3520   -7.2930 C   0  0  0  0  0  0  0  0  0  0  0  0
   -2.7270    4.6360   -6.2760 C   0  0  0  0  0  0  0  0  0  0  0  0
   -1.9630    4.1560   -5.2080 C   0  0  0  0  0  0  0  0  0  0  0  0
    6.4510    6.0790   -4.0480 C   0  0  0  0  0  0  0  0  0  0  0  0
    7.6970    6.5290   -3.6100 C   0  0  0  0  0  0  0  0  0  0  0  0
    8.2090    6.2880   -2.3890 N   0  0  0  0  0  0  0  0  0  0  0  0
    7.4600    5.5220   -1.5700 C   0  0  0  0  0  0  0  0  0  0  0  0
    4.4630    6.2420   -5.5880 C   0  0  0  0  0  0  0  0  0  0  0  0
    5.9970    6.2110   -5.4790 C   0  0  1  0  0  0  0  0  0  0  0  0
    1.9420    2.1290   -2.3110 C   0  0  2  0  0  0  0  0  0  0  0  0
    2.9980    1.5730   -1.2940 C   0  0  1  0  0  0  0  0  0  0  0  0
    3.4480    2.7680   -0.4280 C   0  0  1  0  0  0  0  0  0  0  0  0
    2.0410    6.1290   -7.1770 C   0  0  0  0  0  0  0  0  0  0  0  0
    1.9460    7.3460   -7.2640 O   0  0  0  0  0  0  0  0  0  0  0  0
    4.1880    2.3930    0.8540 C   0  0  0  0  0  0  0  0  0  0  0  0
    4.9790    1.4450    0.8810 O   0  0  0  0  0  0  0  0  0  0  0  0
    4.0890    3.3300    2.0500 C   0  0  0  0  0  0  0  0  0  0  0  0
   -2.8670    3.3070   -3.9100 S   0  0  0  0  0  0  0  0  0  0  0  0
    6.5780    7.4040   -6.2480 C   0  0  0  0  0  0  0  0  0  0  0  0
    2.6950    3.5710    2.6170 C   0  0  0  0  0  0  0  0  0  0  0  0
    1.6420    1.0330   -3.3610 C   0  0  0  0  0  0  0  0  0  0  0  0
    2.5330    0.3340   -0.5030 C   0  0  0  0  0  0  0  0  0  0  0  0
   -4.3890   -1.5800   -3.7280 C   0  0  0  0  0  0  0  0  0  0  0  0
   -5.7490   -1.8050   -3.4650 C   0  0  0  0  0  0  0  0  0  0  0  0
   -3.8600   -6.3650   -4.2910 C   0  0  0  0  0  0  0  0  0  0  0  0
   -5.1470   -6.5970   -3.9700 N   0  0  0  0  0  0  0  0  0  0  0  0
   -3.5430   -2.6720   -4.0200 C   0  0  0  0  0  0  0  0  0  0  0  0
   -6.2800   -3.0940   -3.4870 C   0  0  0  0  0  0  0  0  0  0  0  0
   -3.2780   -5.1030   -4.3320 C   0  0  0  0  0  0  0  0  0  0  0  0
   -5.9150   -5.5110   -3.7180 C   0  0  0  0  0  0  0  0  0  0  0  0
   -4.0700   -3.9840   -4.0240 C   0  0  0  0  0  0  0  0  0  0  0  0
   -5.4330   -4.1920   -3.7290 C   0  0  0  0  0  0  0  0  0  0  0  0
   -2.0840   -2.4440   -4.3750 C   0  0  0  0  0  0  0  0  0  0  0  0
   -1.1580   -3.6800   -4.2640 C   0  0  2  0  0  0  0  0  0  0  0  0
   -1.8610   -4.9450   -4.7990 C   0  0  0  0  0  0  0  0  0  0  0  0
   -7.7620   -3.3070   -3.2620 C   0  0  0  0  0  0  0  0  0  0  0  0
   -8.2320   -4.6110   -3.9430 C   0  0  1  0  0  0  0  0  0  0  0  0
   -7.3710   -5.7660   -3.4070 C   0  0  0  0  0  0  0  0  0  0  0  0
   -9.7370   -4.8520   -3.7140 C   0  0  0  0  0  0  0  0  0  0  0  0
  -10.4610   -5.4110   -4.9480 C   0  0  0  0  0  0  0  0  0  0  0  0
   -0.6030   -3.8950   -2.8210 C   0  0  0  0  0  0  0  0  0  0  0  0
   -1.5880   -3.8310   -1.6470 C   0  0  0  0  0  0  0  0  0  0  0  0
  -10.0130   -6.8040   -5.3610 C   0  0  0  0  0  0  0  0  0  0  0  0
    0.0780   -3.4260   -5.1660 C   0  0  0  0  0  0  0  0  0  0  0  0
   -3.8780   -0.1660   -3.7070 C   0  0  0  0  0  0  0  0  0  0  0  0
    1.7630    3.9530    6.8680 C   0  0  0  0  0  0  0  0  0  0  0  0
    2.4260    3.4270    5.7140 C   0  0  0  0  0  0  0  0  0  0  0  0
   -1.9950    2.5660    4.4780 C   0  0  0  0  0  0  0  0  0  0  0  0
    0.3410    3.9050    6.9690 C   0  0  0  0  0  0  0  0  0  0  0  0
    1.6770    2.9440    4.6150 C   0  0  0  0  0  0  0  0  0  0  0  0
   -1.8020    3.2070    5.6380 C   0  0  0  0  0  0  0  0  0  0  0  0
   -0.7100    2.3070    3.7310 C   0  0  2  0  0  0  0  0  0  0  0  0
   -0.3640    3.3670    5.8590 C   0  0  0  0  0  0  0  0  0  0  0  0
    0.2970    2.8800    4.7080 C   0  0  0  0  0  0  0  0  0  0  0  0
    2.5510    4.5170    7.9270 C   0  0  0  0  0  0  0  0  0  0  0  0
    3.9680    4.5090    7.8420 C   0  0  0  0  0  0  0  0  0  0  0  0
    4.5910    3.9290    6.7440 C   0  0  0  0  0  0  0  0  0  0  0  0
    3.8310    3.3920    5.7110 C   0  0  0  0  0  0  0  0  0  0  0  0
    1.9400    5.0840    9.0730 C   0  0  0  0  0  0  0  0  0  0  0  0
    2.7670    5.6580   10.0740 C   0  0  0  0  0  0  0  0  0  0  0  0
    4.1520    5.6430    9.9690 C   0  0  0  0  0  0  0  0  0  0  0  0
    4.7510    5.0650    8.8600 C   0  0  0  0  0  0  0  0  0  0  0  0
    0.5430    5.0070    9.1730 C   0  0  0  0  0  0  0  0  0  0  0  0
   -0.2290    4.4010    8.1710 C   0  0  0  0  0  0  0  0  0  0  0  0
   -1.6490    4.2210    8.5270 C   0  0  0  0  0  0  0  0  0  0  0  0
   -2.2840    5.0940    9.1060 O   0  0  0  0  0  0  0  0  0  0  0  0
    2.3060    2.4910    3.4810 O   0  0  0  0  0  0  0  0  0  0  0  0
    2.2900    6.2700   11.2010 O   0  0  0  0  0  0  0  0  0  0  0  0
   -0.7010    2.9540    2.3350 C   0  0  0  0  0  0  0  0  0  0  0  0
   -1.9850    2.7470    1.5210 C   0  0  0  0  0  0  0  0  0  0  0  0
   -1.8210    3.2020    0.0790 C   0  0  0  0  0  0  0  0  0  0  0  0
    0.1140   -7.9290    5.2360 H   0  0  0  0  0  0  0  0  0  0  0  0
   -2.2580   -5.7210    2.4920 H   0  0  0  0  0  0  0  0  0  0  0  0
    1.7360   -6.1600    5.2660 H   0  0  0  0  0  0  0  0  0  0  0  0
    3.2380    0.3370    2.5010 H   0  0  0  0  0  0  0  0  0  0  0  0
   -2.6050   -1.6680    0.0410 H   0  0  0  0  0  0  0  0  0  0  0  0
   -2.2140   -1.4670    1.7370 H   0  0  0  0  0  0  0  0  0  0  0  0
   -0.2540   -1.3490   -0.6200 H   0  0  0  0  0  0  0  0  0  0  0  0
   -0.8590   -0.0190    0.3640 H   0  0  0  0  0  0  0  0  0  0  0  0
   -3.0190   -7.5880    1.8890 H   0  0  0  0  0  0  0  0  0  0  0  0
   -3.3630   -9.1890    2.4890 H   0  0  0  0  0  0  0  0  0  0  0  0
   -4.4670   -6.6110    3.7690 H   0  0  0  0  0  0  0  0  0  0  0  0
   -4.8260   -8.2500    4.3040 H   0  0  0  0  0  0  0  0  0  0  0  0
   -6.6550   -7.3750    2.9050 H   0  0  0  0  0  0  0  0  0  0  0  0
   -5.5400   -7.0850    1.5530 H   0  0  0  0  0  0  0  0  0  0  0  0
   -5.8860   -8.7480    2.0860 H   0  0  0  0  0  0  0  0  0  0  0  0
    0.1740   -3.6250   -0.4140 H   0  0  0  0  0  0  0  0  0  0  0  0
   -0.7140   -5.0940   -0.1420 H   0  0  0  0  0  0  0  0  0  0  0  0
   -2.9580   -5.0560    0.8620 H   0  0  0  0  0  0  0  0  0  0  0  0
   -3.6530   -3.5490    0.3920 H   0  0  0  0  0  0  0  0  0  0  0  0
   -3.3510   -3.8160    2.1070 H   0  0  0  0  0  0  0  0  0  0  0  0
    4.4590   -1.6930    4.1920 H   0  0  0  0  0  0  0  0  0  0  0  0
    3.1000   -1.8460    5.3690 H   0  0  0  0  0  0  0  0  0  0  0  0
    3.5420   -0.2830    4.7400 H   0  0  0  0  0  0  0  0  0  0  0  0
    3.9580   -3.7460    3.9020 H   0  0  0  0  0  0  0  0  0  0  0  0
    3.3720   -5.3170    4.1990 H   0  0  0  0  0  0  0  0  0  0  0  0
    3.1330   -4.0820    5.4640 H   0  0  0  0  0  0  0  0  0  0  0  0
   -0.1900    3.2490   -3.3680 H   0  0  0  0  0  0  0  0  0  0  0  0
    5.9800    3.9260   -0.0760 H   0  0  0  0  0  0  0  0  0  0  0  0
   -0.3220    6.2020   -8.0330 H   0  0  0  0  0  0  0  0  0  0  0  0
   -2.7080    5.7310   -8.1260 H   0  0  0  0  0  0  0  0  0  0  0  0
   -3.7970    4.4580   -6.3270 H   0  0  0  0  0  0  0  0  0  0  0  0
    8.3640    7.0940   -4.2550 H   0  0  0  0  0  0  0  0  0  0  0  0
    7.9170    5.3250   -0.6040 H   0  0  0  0  0  0  0  0  0  0  0  0
    4.2740    6.0160   -6.6380 H   0  0  0  0  0  0  0  0  0  0  0  0
    4.0890    7.2530   -5.3630 H   0  0  0  0  0  0  0  0  0  0  0  0
    6.3510    5.2990   -5.9830 H   0  0  0  0  0  0  0  0  0  0  0  0
    1.0250    2.3720   -1.7610 H   0  0  0  0  0  0  0  0  0  0  0  0
    3.8630    1.2190   -1.8790 H   0  0  0  0  0  0  0  0  0  0  0  0
    2.5620    3.3400   -0.1280 H   0  0  0  0  0  0  0  0  0  0  0  0
    2.5420    5.5120   -7.9440 H   0  0  0  0  0  0  0  0  0  0  0  0
    4.5150    4.2890    1.7430 H   0  0  0  0  0  0  0  0  0  0  0  0
    4.7530    2.9210    2.8190 H   0  0  0  0  0  0  0  0  0  0  0  0
   -3.5960    4.3720   -3.5370 H   0  0  0  0  0  0  0  0  0  0  0  0
    6.1710    7.4390   -7.2650 H   0  0  0  0  0  0  0  0  0  0  0  0
    6.3440    8.3580   -5.7560 H   0  0  0  0  0  0  0  0  0  0  0  0
    7.6660    7.3340   -6.3480 H   0  0  0  0  0  0  0  0  0  0  0  0
    1.9540    3.6640    1.8240 H   0  0  0  0  0  0  0  0  0  0  0  0
    2.7080    4.5280    3.1540 H   0  0  0  0  0  0  0  0  0  0  0  0
    1.0340    1.3810   -4.1970 H   0  0  0  0  0  0  0  0  0  0  0  0
    1.0920    0.2000   -2.9140 H   0  0  0  0  0  0  0  0  0  0  0  0
    2.5720    0.6400   -3.7920 H   0  0  0  0  0  0  0  0  0  0  0  0
    3.4190   -0.1570   -0.0800 H   0  0  0  0  0  0  0  0  0  0  0  0
    2.0740   -0.4020   -1.1680 H   0  0  0  0  0  0  0  0  0  0  0  0
   -6.4080   -0.9620   -3.2600 H   0  0  0  0  0  0  0  0  0  0  0  0
   -3.2880   -7.2590   -4.5290 H   0  0  0  0  0  0  0  0  0  0  0  0
   -2.0780   -2.0660   -5.4080 H   0  0  0  0  0  0  0  0  0  0  0  0
   -1.6640   -1.6460   -3.7540 H   0  0  0  0  0  0  0  0  0  0  0  0
   -1.8970   -4.9100   -5.8980 H   0  0  0  0  0  0  0  0  0  0  0  0
   -1.2750   -5.8360   -4.5380 H   0  0  0  0  0  0  0  0  0  0  0  0
   -7.9630   -3.3300   -2.1830 H   0  0  0  0  0  0  0  0  0  0  0  0
   -8.3150   -2.4620   -3.6920 H   0  0  0  0  0  0  0  0  0  0  0  0
   -8.0570   -4.5030   -5.0230 H   0  0  0  0  0  0  0  0  0  0  0  0
   -7.4820   -5.8550   -2.3190 H   0  0  0  0  0  0  0  0  0  0  0  0
   -7.6730   -6.7230   -3.8450 H   0  0  0  0  0  0  0  0  0  0  0  0
  -10.2290   -3.9010   -3.4680 H   0  0  0  0  0  0  0  0  0  0  0  0
   -9.9010   -5.5160   -2.8540 H   0  0  0  0  0  0  0  0  0  0  0  0
  -11.5390   -5.4370   -4.7390 H   0  0  0  0  0  0  0  0  0  0  0  0
  -10.3230   -4.7270   -5.7970 H   0  0  0  0  0  0  0  0  0  0  0  0
   -0.0630   -4.8540   -2.7840 H   0  0  0  0  0  0  0  0  0  0  0  0
    0.1610   -3.1240   -2.6390 H   0  0  0  0  0  0  0  0  0  0  0  0
   -2.0950   -2.8650   -1.6650 H   0  0  0  0  0  0  0  0  0  0  0  0
   -2.3500   -4.6120   -1.7350 H   0  0  0  0  0  0  0  0  0  0  0  0
   -8.9670   -6.8140   -5.6860 H   0  0  0  0  0  0  0  0  0  0  0  0
  -10.6180   -7.1590   -6.2020 H   0  0  0  0  0  0  0  0  0  0  0  0
  -10.1310   -7.5090   -4.5310 H   0  0  0  0  0  0  0  0  0  0  0  0
    0.7810   -4.2670   -5.1200 H   0  0  0  0  0  0  0  0  0  0  0  0
    0.6160   -2.5210   -4.8580 H   0  0  0  0  0  0  0  0  0  0  0  0
   -0.2140   -3.2920   -6.2150 H   0  0  0  0  0  0  0  0  0  0  0  0
   -3.4540    0.0950   -4.6840 H   0  0  0  0  0  0  0  0  0  0  0  0
   -4.6780    0.5490   -3.4910 H   0  0  0  0  0  0  0  0  0  0  0  0
   -3.1160   -0.0470   -2.9290 H   0  0  0  0  0  0  0  0  0  0  0  0
   -2.9700    2.2870    4.1030 H   0  0  0  0  0  0  0  0  0  0  0  0
   -2.6070    3.5340    6.2720 H   0  0  0  0  0  0  0  0  0  0  0  0
   -0.5630    1.2240    3.6440 H   0  0  0  0  0  0  0  0  0  0  0  0
    5.6750    3.8800    6.6790 H   0  0  0  0  0  0  0  0  0  0  0  0
    4.3680    2.9210    4.8960 H   0  0  0  0  0  0  0  0  0  0  0  0
    4.7600    6.0880   10.7510 H   0  0  0  0  0  0  0  0  0  0  0  0
    5.8360    5.0590    8.7920 H   0  0  0  0  0  0  0  0  0  0  0  0
    0.0260    5.3650   10.0610 H   0  0  0  0  0  0  0  0  0  0  0  0
   -2.0960    3.2440    8.2950 H   0  0  0  0  0  0  0  0  0  0  0  0
    1.3230    6.3520   11.1550 H   0  0  0  0  0  0  0  0  0  0  0  0
   -0.5050    4.0330    2.4130 H   0  0  0  0  0  0  0  0  0  0  0  0
    0.1320    2.5260    1.7700 H   0  0  0  0  0  0  0  0  0  0  0  0
   -2.2710    1.6890    1.5320 H   0  0  0  0  0  0  0  0  0  0  0  0
   -2.8070    3.3190    1.9670 H   0  0  0  0  0  0  0  0  0  0  0  0
   -1.5160    4.2530    0.0240 H   0  0  0  0  0  0  0  0  0  0  0  0
   -1.0710    2.5950   -0.4380 H   0  0  0  0  0  0  0  0  0  0  0  0
   -2.7690    3.0950   -0.4570 H   0  0  0  0  0  0  0  0  0  0  0  0
  1  2  1  0
  1  5  2  0
  1 11  1  0
  2  6  2  0
  2 14  1  0
  3  4  2  0
  3  7  1  0
  3 18  1  0
  4  8  1  0
  4114  1  0
  5  9  1  0
  5 15  1  0
  6 10  1  0
  6 27  1  0
  7  9  2  0
  7115  1  0
  8 10  2  0
  8116  1  0
  9 10  1  0
 11 12  2  0
 11 17  1  0
 12 13  1  0
 12 21  1  0
 13 14  2  0
 13117  1  0
 14 26  1  0
 15 16  1  0
 15 24  1  6
 15 25  1  0
 16 17  1  0
 16118  1  0
 16119  1  0
 17120  1  0
 17121  1  0
 18 19  2  0
 18 20  1  0
 20 22  1  0
 20122  1  0
 20123  1  0
 21 64  1  0
 22 23  1  0
 22124  1  0
 22125  1  0
 23126  1  0
 23127  1  0
 23128  1  0
 24 84  1  0
 24129  1  0
 24130  1  0
 25131  1  0
 25132  1  0
 25133  1  0
 26134  1  0
 26135  1  0
 26136  1  0
 27137  1  0
 27138  1  0
 27139  1  0
 28 29  2  0
 28 32  1  0
 28 38  1  0
 29 33  1  0
 29 41  1  0
 30 31  1  0
 30 34  2  0
 30 42  1  0
 31 35  2  0
 31 45  1  0
 32 36  2  0
 32 50  1  0
 33 37  2  0
 33 52  1  0
 34 36  1  0
 34 55  1  0
 35 37  1  0
 35140  1  0
 36 37  1  0
 38 39  2  0
 38 46  1  0
 39 40  1  0
 39 49  1  0
 40 41  2  0
 40141  1  0
 41 54  1  0
 42 43  2  0
 42142  1  0
 43 44  1  0
 43143  1  0
 44 45  2  0
 44144  1  0
 45 60  1  0
 46 47  2  0
 46 51  1  0
 47 48  1  0
 47145  1  0
 48 49  2  0
 49146  1  0
 50 51  1  0
 50147  1  0
 50148  1  0
 51 61  1  0
 51149  1  6
 52 53  1  0
 52 63  1  0
 52150  1  1
 53 54  1  0
 53 64  1  0
 53151  1  6
 54 57  1  0
 54152  1  1
 55 56  2  0
 55153  1  0
 57 58  2  0
 57 59  1  0
 59 62  1  0
 59154  1  0
 59155  1  0
 60156  1  0
 61157  1  0
 61158  1  0
 61159  1  0
 62109  1  0
 62160  1  0
 62161  1  0
 63162  1  0
 63163  1  0
 63164  1  0
 64165  1  0
 64166  1  0
 65 66  2  0
 65 69  1  0
 65 87  1  0
 66 70  1  0
 66167  1  0
 67 68  1  0
 67 71  2  0
 67168  1  0
 68 72  2  0
 69 73  2  0
 69 75  1  0
 70 74  2  0
 70 78  1  0
 71 73  1  0
 71 77  1  0
 72 74  1  0
 72 80  1  0
 73 74  1  0
 75 76  1  0
 75169  1  0
 75170  1  0
 76 77  1  0
 76 83  1  1
 76 86  1  0
 77171  1  0
 77172  1  0
 78 79  1  0
 78173  1  0
 78174  1  0
 79 80  1  0
 79 81  1  0
 79175  1  6
 80176  1  0
 80177  1  0
 81 82  1  0
 81178  1  0
 81179  1  0
 82 85  1  0
 82180  1  0
 82181  1  0
 83 84  1  0
 83182  1  0
 83183  1  0
 84184  1  0
 84185  1  0
 85186  1  0
 85187  1  0
 85188  1  0
 86189  1  0
 86190  1  0
 86191  1  0
 87192  1  0
 87193  1  0
 87194  1  0
 88 89  2  0
 88 91  1  0
 88 97  1  0
 89 92  1  0
 89100  1  0
 90 93  2  0
 90 94  1  0
 90195  1  0
 91 95  2  0
 91106  1  0
 92 96  2  0
 92109  1  0
 93 95  1  0
 93196  1  0
 94 96  1  0
 94111  1  0
 94197  1  6
 95 96  1  0
 97 98  2  0
 97101  1  0
 98 99  1  0
 98104  1  0
 99100  2  0
 99198  1  0
100199  1  0
101102  2  0
101105  1  0
102103  1  0
102110  1  0
103104  2  0
103200  1  0
104201  1  0
105106  2  0
105202  1  0
106107  1  0
107108  2  0
107203  1  0
110204  1  0
111112  1  0
111205  1  0
111206  1  0
112113  1  0
112207  1  0
112208  1  0
113209  1  0
113210  1  0
113211  1  0
M  END
