
     RDKit          3D

206232  0  0  0  0  0  0  0  0999 V2000
    4.5120    3.8600    1.4160 C   0  0  0  0  0  0  0  0  0  0  0  0
    3.2700    3.3910    1.9560 C   0  0  0  0  0  0  0  0  0  0  0  0
    4.1670    6.7920    5.0100 C   0  0  0  0  0  0  0  0  0  0  0  0
    5.0910    5.0560    1.9270 C   0  0  0  0  0  0  0  0  0  0  0  0
    2.6890    4.0510    3.0980 C   0  0  0  0  0  0  0  0  0  0  0  0
    4.9650    6.7670    3.8930 C   0  0  0  0  0  0  0  0  0  0  0  0
    3.2580    5.7820    4.8820 N   0  0  0  0  0  0  0  0  0  0  0  0
    4.5440    5.6610    3.0850 C   0  0  0  0  0  0  0  0  0  0  0  0
    3.4010    5.1250    3.6730 C   0  0  0  0  0  0  0  0  0  0  0  0
    5.1810    3.1130    0.3910 C   0  0  0  0  0  0  0  0  0  0  0  0
    4.6390    1.8940   -0.0500 C   0  0  0  0  0  0  0  0  0  0  0  0
    3.3900    1.4910    0.3710 C   0  0  0  0  0  0  0  0  0  0  0  0
    2.7070    2.2510    1.3150 C   0  0  0  0  0  0  0  0  0  0  0  0
    6.3610    5.6200    1.3330 C   0  0  0  0  0  0  0  0  0  0  0  0
    6.6330    5.1050   -0.0700 C   0  0  0  0  0  0  0  0  0  0  0  0
    6.5450    3.5730   -0.1550 C   0  0  1  0  0  0  0  0  0  0  0  0
    1.2900    1.8570    1.4560 C   0  0  0  0  0  0  0  0  0  0  0  0
    0.9380    1.0270    2.2830 O   0  0  0  0  0  0  0  0  0  0  0  0
    0.3610    2.4990    0.4490 C   0  0  0  0  0  0  0  0  0  0  0  0
    1.5850    3.4490    3.6900 O   0  0  0  0  0  0  0  0  0  0  0  0
    7.6340    2.9070    0.7250 C   0  0  0  0  0  0  0  0  0  0  0  0
    6.8450    3.1450   -1.6320 C   0  0  0  0  0  0  0  0  0  0  0  0
   -4.0060    5.1440    1.1550 C   0  0  0  0  0  0  0  0  0  0  0  0
   -3.3340    4.1020    1.8460 C   0  0  0  0  0  0  0  0  0  0  0  0
   -5.0460    1.5750   -1.6330 C   0  0  0  0  0  0  0  0  0  0  0  0
   -4.7280    4.8720   -0.0460 C   0  0  0  0  0  0  0  0  0  0  0  0
   -3.5000    2.7610    1.4170 C   0  0  0  0  0  0  0  0  0  0  0  0
   -5.2550    2.9330   -1.7480 C   0  0  0  0  0  0  0  0  0  0  0  0
   -4.3770    1.3460   -0.4680 N   0  0  0  0  0  0  0  0  0  0  0  0
   -4.7460    3.5500   -0.5570 C   0  0  0  0  0  0  0  0  0  0  0  0
   -4.1670    2.5340    0.2020 C   0  0  0  0  0  0  0  0  0  0  0  0
   -3.9430    6.4550    1.6790 C   0  0  0  0  0  0  0  0  0  0  0  0
   -3.2060    6.7270    2.8370 C   0  0  0  0  0  0  0  0  0  0  0  0
   -2.4900    5.7140    3.4690 C   0  0  0  0  0  0  0  0  0  0  0  0
   -2.4940    4.4110    2.9640 C   0  0  0  0  0  0  0  0  0  0  0  0
   -5.4160    6.0120   -0.7690 C   0  0  0  0  0  0  0  0  0  0  0  0
   -5.8280    7.1260    0.1820 C   0  0  0  0  0  0  0  0  0  0  0  0
   -4.6280    7.6060    0.9790 C   0  0  0  0  0  0  0  0  0  0  0  0
   -2.9770    1.6060    2.2450 C   0  0  0  0  0  0  0  0  0  0  0  0
   -2.4390    2.0310    3.6110 C   0  0  0  0  0  0  0  0  0  0  0  0
   -1.5750    3.2830    3.4450 C   0  0  2  0  0  0  0  0  0  0  0  0
   -5.4160    0.5290   -2.6150 C   0  0  0  0  0  0  0  0  0  0  0  0
   -6.3690    1.1150   -3.6720 C   0  0  0  0  0  0  0  0  0  0  0  0
   -5.9740    2.5460   -4.1550 C   0  0  1  0  0  0  0  0  0  0  0  0
   -5.9160    3.5350   -2.9480 C   0  0  0  0  0  0  0  0  0  0  0  0
   -1.7940    6.0350    4.5970 O   0  0  0  0  0  0  0  0  0  0  0  0
   -0.6500    3.4790    4.6580 C   0  0  0  0  0  0  0  0  0  0  0  0
   -4.6180    2.5040   -4.8900 C   0  0  0  0  0  0  0  0  0  0  0  0
    0.6130    4.2960    4.3220 C   0  0  0  0  0  0  0  0  0  0  0  0
   -7.0400    3.0480   -5.1470 C   0  0  0  0  0  0  0  0  0  0  0  0
    2.8780    1.4070   -3.9930 C   0  0  0  0  0  0  0  0  0  0  0  0
    1.7920    0.5690   -4.3310 C   0  0  0  0  0  0  0  0  0  0  0  0
    6.0010   -1.9380   -5.7680 C   0  0  0  0  0  0  0  0  0  0  0  0
    4.9260   -2.7790   -6.0990 C   0  0  0  0  0  0  0  0  0  0  0  0
    4.2010    0.9670   -4.2180 C   0  0  0  0  0  0  0  0  0  0  0  0
    2.0160   -0.7610   -4.7370 C   0  0  0  0  0  0  0  0  0  0  0  0
    5.7500   -0.6930   -5.1440 C   0  0  0  0  0  0  0  0  0  0  0  0
    3.6200   -2.3670   -5.7920 C   0  0  0  0  0  0  0  0  0  0  0  0
    4.4220   -0.2930   -4.8360 C   0  0  0  0  0  0  0  0  0  0  0  0
    3.3310   -1.1510   -5.1250 C   0  0  0  0  0  0  0  0  0  0  0  0
    2.6350    2.6930   -3.4480 C   0  0  0  0  0  0  0  0  0  0  0  0
    1.3040    3.1610   -3.3200 C   0  0  0  0  0  0  0  0  0  0  0  0
    0.2500    2.3630   -3.7710 C   0  0  0  0  0  0  0  0  0  0  0  0
    0.4910    1.0910   -4.2910 C   0  0  0  0  0  0  0  0  0  0  0  0
    7.3260   -2.3400   -6.0660 C   0  0  0  0  0  0  0  0  0  0  0  0
    7.5490   -3.5790   -6.6850 C   0  0  0  0  0  0  0  0  0  0  0  0
    6.4810   -4.4120   -7.0090 C   0  0  0  0  0  0  0  0  0  0  0  0
    5.1770   -4.0140   -6.7200 C   0  0  0  0  0  0  0  0  0  0  0  0
    3.7110    3.5020   -3.0230 C   0  0  0  0  0  0  0  0  0  0  0  0
    3.4150    4.7670   -2.4700 C   0  0  0  0  0  0  0  0  0  0  0  0
    2.1070    5.2180   -2.3330 C   0  0  0  0  0  0  0  0  0  0  0  0
    1.0530    4.4210   -2.7670 C   0  0  0  0  0  0  0  0  0  0  0  0
    5.0300    3.0110   -3.1680 C   0  0  0  0  0  0  0  0  0  0  0  0
    5.2910    1.7970   -3.8540 C   0  0  0  0  0  0  0  0  0  0  0  0
    6.5900    1.3810   -4.2150 C   0  0  0  0  0  0  0  0  0  0  0  0
    6.8340    0.1480   -4.8330 C   0  0  0  0  0  0  0  0  0  0  0  0
    8.3860   -1.4890   -5.7450 C   0  0  0  0  0  0  0  0  0  0  0  0
    8.1430   -0.2580   -5.1400 C   0  0  0  0  0  0  0  0  0  0  0  0
    0.8600   -1.7800   -4.5640 C   0  0  2  0  0  0  0  0  0  0  0  0
   -0.5680   -1.1510   -4.6550 C   0  0  2  0  0  0  0  0  0  0  0  0
   -0.6090    0.3370   -4.9850 C   0  0  0  0  0  0  0  0  0  0  0  0
   -1.4700   -1.3870   -3.4470 C   0  0  0  0  0  0  0  0  0  0  0  0
   -1.4290   -0.7440   -2.4040 O   0  0  0  0  0  0  0  0  0  0  0  0
    6.0370    3.7950   -2.6350 O   0  0  0  0  0  0  0  0  0  0  0  0
    1.0320   -2.5620   -3.2210 C   0  0  0  0  0  0  0  0  0  0  0  0
   -3.6940   -8.4460    2.4810 C   0  0  0  0  0  0  0  0  0  0  0  0
   -3.5320   -9.2900    1.3530 C   0  0  0  0  0  0  0  0  0  0  0  0
    1.3970   -4.6280   -0.7210 C   0  0  0  0  0  0  0  0  0  0  0  0
   -2.9780   -7.2260    2.5610 C   0  0  0  0  0  0  0  0  0  0  0  0
   -2.6560   -8.9020    0.3100 C   0  0  0  0  0  0  0  0  0  0  0  0
    0.7890   -4.3890    0.5050 C   0  0  0  0  0  0  0  0  0  0  0  0
    0.7500   -5.6900   -1.2930 N   0  0  0  0  0  0  0  0  0  0  0  0
   -1.1750   -5.7360    1.6950 C   0  0  0  0  0  0  0  0  0  0  0  0
   -1.0500   -7.2850   -0.6420 C   0  0  0  0  0  0  0  0  0  0  0  0
   -2.0320   -6.8790    1.5470 C   0  0  0  0  0  0  0  0  0  0  0  0
   -1.9200   -7.6900    0.3920 C   0  0  0  0  0  0  0  0  0  0  0  0
   -0.2440   -5.3880    0.6760 C   0  0  0  0  0  0  0  0  0  0  0  0
   -0.2240   -6.1760   -0.4640 C   0  0  0  0  0  0  0  0  0  0  0  0
   -4.5750   -8.8290    3.5330 C   0  0  0  0  0  0  0  0  0  0  0  0
   -5.2470  -10.0760    3.4640 C   0  0  0  0  0  0  0  0  0  0  0  0
   -5.0940  -10.8850    2.3420 C   0  0  0  0  0  0  0  0  0  0  0  0
   -4.2540  -10.5030    1.2920 C   0  0  0  0  0  0  0  0  0  0  0  0
   -4.7950   -7.9810    4.6480 C   0  0  0  0  0  0  0  0  0  0  0  0
   -5.6310   -8.4560    5.6880 C   0  0  0  0  0  0  0  0  0  0  0  0
   -6.2580   -9.6970    5.6250 C   0  0  0  0  0  0  0  0  0  0  0  0
   -6.0760  -10.4970    4.5090 C   0  0  0  0  0  0  0  0  0  0  0  0
   -4.1840   -6.7020    4.6650 C   0  0  0  0  0  0  0  0  0  0  0  0
   -3.2470   -6.3600    3.6550 C   0  0  0  0  0  0  0  0  0  0  0  0
   -2.5870   -4.9970    3.6500 C   0  0  0  0  0  0  0  0  0  0  0  0
   -1.1990   -5.0290    3.0300 C   0  0  0  0  0  0  0  0  0  0  0  0
   -2.5200   -9.8130   -0.9040 C   0  0  0  0  0  0  0  0  0  0  0  0
   -2.8220  -11.2710   -0.5860 C   0  0  0  0  0  0  0  0  0  0  0  0
   -4.1770  -11.3980    0.0800 C   0  0  0  0  0  0  0  0  0  0  0  0
    1.1760   -3.3200    1.4710 C   0  0  0  0  0  0  0  0  0  0  0  0
   -4.5100   -5.7030    5.7580 C   0  0  0  0  0  0  0  0  0  0  0  0
    2.5610   -3.9840   -1.3970 C   0  0  0  0  0  0  0  0  0  0  0  0
    2.3300   -3.8480   -3.1960 S   0  0  0  0  0  0  0  0  0  0  0  0
    4.1920    7.4100    5.9020 H   0  0  0  0  0  0  0  0  0  0  0  0
    5.8150    7.4120    3.7120 H   0  0  0  0  0  0  0  0  0  0  0  0
    2.6190    5.5110    5.6150 H   0  0  0  0  0  0  0  0  0  0  0  0
    5.1500    1.2620   -0.7670 H   0  0  0  0  0  0  0  0  0  0  0  0
    2.9310    0.6060   -0.0690 H   0  0  0  0  0  0  0  0  0  0  0  0
    6.2920    6.7140    1.2920 H   0  0  0  0  0  0  0  0  0  0  0  0
    7.2000    5.3800    1.9970 H   0  0  0  0  0  0  0  0  0  0  0  0
    5.9110    5.5730   -0.7490 H   0  0  0  0  0  0  0  0  0  0  0  0
    7.6260    5.4520   -0.3900 H   0  0  0  0  0  0  0  0  0  0  0  0
   -0.5670    1.9290    0.3910 H   0  0  0  0  0  0  0  0  0  0  0  0
    0.8140    2.4750   -0.5440 H   0  0  0  0  0  0  0  0  0  0  0  0
    0.1550    3.5340    0.7340 H   0  0  0  0  0  0  0  0  0  0  0  0
    8.6350    3.2610    0.4490 H   0  0  0  0  0  0  0  0  0  0  0  0
    7.6200    1.8160    0.6080 H   0  0  0  0  0  0  0  0  0  0  0  0
    7.4880    3.1110    1.7940 H   0  0  0  0  0  0  0  0  0  0  0  0
    6.8490    2.0540   -1.7190 H   0  0  0  0  0  0  0  0  0  0  0  0
    7.8770    3.4410   -1.8690 H   0  0  0  0  0  0  0  0  0  0  0  0
   -4.0420    0.4460   -0.1540 H   0  0  0  0  0  0  0  0  0  0  0  0
   -3.1840    7.7440    3.2220 H   0  0  0  0  0  0  0  0  0  0  0  0
   -6.3230    5.6510   -1.2650 H   0  0  0  0  0  0  0  0  0  0  0  0
   -4.7420    6.4030   -1.5410 H   0  0  0  0  0  0  0  0  0  0  0  0
   -6.2600    7.9610   -0.3820 H   0  0  0  0  0  0  0  0  0  0  0  0
   -6.6070    6.7640    0.8670 H   0  0  0  0  0  0  0  0  0  0  0  0
   -3.9030    8.0950    0.3160 H   0  0  0  0  0  0  0  0  0  0  0  0
   -4.9630    8.3510    1.7120 H   0  0  0  0  0  0  0  0  0  0  0  0
   -2.1870    1.0960    1.6820 H   0  0  0  0  0  0  0  0  0  0  0  0
   -3.7800    0.8750    2.3960 H   0  0  0  0  0  0  0  0  0  0  0  0
   -1.8680    1.1950    4.0310 H   0  0  0  0  0  0  0  0  0  0  0  0
   -3.2720    2.2280    4.2970 H   0  0  0  0  0  0  0  0  0  0  0  0
   -0.8980    3.1050    2.6090 H   0  0  0  0  0  0  0  0  0  0  0  0
   -4.5110    0.1470   -3.1000 H   0  0  0  0  0  0  0  0  0  0  0  0
   -5.9040   -0.3160   -2.1170 H   0  0  0  0  0  0  0  0  0  0  0  0
   -6.4200    0.4250   -4.5250 H   0  0  0  0  0  0  0  0  0  0  0  0
   -7.3860    1.1550   -3.2530 H   0  0  0  0  0  0  0  0  0  0  0  0
   -6.9360    3.8150   -2.6550 H   0  0  0  0  0  0  0  0  0  0  0  0
   -5.3940    4.4510   -3.2490 H   0  0  0  0  0  0  0  0  0  0  0  0
   -2.0090    6.9480    4.8520 H   0  0  0  0  0  0  0  0  0  0  0  0
   -1.2000    3.9280    5.4910 H   0  0  0  0  0  0  0  0  0  0  0  0
   -0.3140    2.4950    5.0130 H   0  0  0  0  0  0  0  0  0  0  0  0
   -4.6430    1.7680   -5.7000 H   0  0  0  0  0  0  0  0  0  0  0  0
   -3.7900    2.2340   -4.2280 H   0  0  0  0  0  0  0  0  0  0  0  0
   -4.3770    3.4760   -5.3330 H   0  0  0  0  0  0  0  0  0  0  0  0
    0.9990    4.6280    5.2880 H   0  0  0  0  0  0  0  0  0  0  0  0
    0.3940    5.1660    3.6870 H   0  0  0  0  0  0  0  0  0  0  0  0
   -6.7900    4.0460   -5.5210 H   0  0  0  0  0  0  0  0  0  0  0  0
   -7.1340    2.3790   -6.0070 H   0  0  0  0  0  0  0  0  0  0  0  0
   -8.0240    3.1090   -4.6700 H   0  0  0  0  0  0  0  0  0  0  0  0
    2.8120   -3.0310   -6.0800 H   0  0  0  0  0  0  0  0  0  0  0  0
   -0.7710    2.7390   -3.7350 H   0  0  0  0  0  0  0  0  0  0  0  0
    8.5600   -3.9070   -6.9170 H   0  0  0  0  0  0  0  0  0  0  0  0
    6.6600   -5.3730   -7.4840 H   0  0  0  0  0  0  0  0  0  0  0  0
    4.3530   -4.6750   -6.9780 H   0  0  0  0  0  0  0  0  0  0  0  0
    4.2200    5.4220   -2.1520 H   0  0  0  0  0  0  0  0  0  0  0  0
    1.9120    6.1910   -1.8900 H   0  0  0  0  0  0  0  0  0  0  0  0
    0.0360    4.7850   -2.6530 H   0  0  0  0  0  0  0  0  0  0  0  0
    7.4360    2.0380   -4.0150 H   0  0  0  0  0  0  0  0  0  0  0  0
    9.4100   -1.7770   -5.9680 H   0  0  0  0  0  0  0  0  0  0  0  0
    8.9900    0.3820   -4.9000 H   0  0  0  0  0  0  0  0  0  0  0  0
    0.9030   -2.4910   -5.3960 H   0  0  0  0  0  0  0  0  0  0  0  0
   -1.1020   -1.6670   -5.4690 H   0  0  0  0  0  0  0  0  0  0  0  0
   -0.4690    0.4710   -6.0670 H   0  0  0  0  0  0  0  0  0  0  0  0
   -1.5920    0.7650   -4.7470 H   0  0  0  0  0  0  0  0  0  0  0  0
   -2.1750   -2.2380   -3.5470 H   0  0  0  0  0  0  0  0  0  0  0  0
    1.2100   -1.8550   -2.4020 H   0  0  0  0  0  0  0  0  0  0  0  0
    0.1210   -3.1250   -2.9990 H   0  0  0  0  0  0  0  0  0  0  0  0
    0.9900   -6.0830   -2.1920 H   0  0  0  0  0  0  0  0  0  0  0  0
   -0.9650   -7.8410   -1.5690 H   0  0  0  0  0  0  0  0  0  0  0  0
   -5.6330  -11.8290    2.2760 H   0  0  0  0  0  0  0  0  0  0  0  0
   -5.7970   -7.8670    6.5850 H   0  0  0  0  0  0  0  0  0  0  0  0
   -6.8870  -10.0340    6.4430 H   0  0  0  0  0  0  0  0  0  0  0  0
   -6.5810  -11.4600    4.4670 H   0  0  0  0  0  0  0  0  0  0  0  0
   -3.2340   -4.3040    3.0940 H   0  0  0  0  0  0  0  0  0  0  0  0
   -2.4650   -4.6040    4.6660 H   0  0  0  0  0  0  0  0  0  0  0  0
   -0.8570   -3.9960    2.9420 H   0  0  0  0  0  0  0  0  0  0  0  0
   -0.5030   -5.5500    3.6970 H   0  0  0  0  0  0  0  0  0  0  0  0
   -3.1920   -9.4480   -1.6910 H   0  0  0  0  0  0  0  0  0  0  0  0
   -1.4980   -9.8000   -1.2980 H   0  0  0  0  0  0  0  0  0  0  0  0
   -2.7940  -11.8680   -1.5030 H   0  0  0  0  0  0  0  0  0  0  0  0
   -2.0420  -11.6680    0.0780 H   0  0  0  0  0  0  0  0  0  0  0  0
   -4.9760  -11.1180   -0.6150 H   0  0  0  0  0  0  0  0  0  0  0  0
   -4.3310  -12.4430    0.3670 H   0  0  0  0  0  0  0  0  0  0  0  0
    0.3340   -2.6470    1.6570 H   0  0  0  0  0  0  0  0  0  0  0  0
    1.5030   -3.7590    2.4180 H   0  0  0  0  0  0  0  0  0  0  0  0
    1.9970   -2.7020    1.0960 H   0  0  0  0  0  0  0  0  0  0  0  0
   -3.7760   -5.7760    6.5640 H   0  0  0  0  0  0  0  0  0  0  0  0
   -4.5270   -4.6800    5.3710 H   0  0  0  0  0  0  0  0  0  0  0  0
   -5.5130   -5.8470    6.1700 H   0  0  0  0  0  0  0  0  0  0  0  0
    3.4470   -4.6050   -1.2280 H   0  0  0  0  0  0  0  0  0  0  0  0
    2.7840   -2.9940   -0.9940 H   0  0  0  0  0  0  0  0  0  0  0  0
  1  2  2  0
  1  4  1  0
  1 10  1  0
  2  5  1  0
  2 13  1  0
  3  6  2  0
  3  7  1  0
  3118  1  0
  4  8  2  0
  4 14  1  0
  5  9  2  0
  5 20  1  0
  6  8  1  0
  6119  1  0
  7  9  1  0
  7120  1  0
  8  9  1  0
 10 11  2  0
 10 16  1  0
 11 12  1  0
 11121  1  0
 12 13  2  0
 12122  1  0
 13 17  1  0
 14 15  1  0
 14123  1  0
 14124  1  0
 15 16  1  0
 15125  1  0
 15126  1  0
 16 21  1  1
 16 22  1  0
 17 18  2  0
 17 19  1  0
 19127  1  0
 19128  1  0
 19129  1  0
 20 49  1  0
 21130  1  0
 21131  1  0
 21132  1  0
 22 84  1  0
 22133  1  0
 22134  1  0
 23 24  2  0
 23 26  1  0
 23 32  1  0
 24 27  1  0
 24 35  1  0
 25 28  2  0
 25 29  1  0
 25 42  1  0
 26 30  2  0
 26 36  1  0
 27 31  2  0
 27 39  1  0
 28 30  1  0
 28 45  1  0
 29 31  1  0
 29135  1  0
 30 31  1  0
 32 33  2  0
 32 38  1  0
 33 34  1  0
 33136  1  0
 34 35  2  0
 34 46  1  0
 35 41  1  0
 36 37  1  0
 36137  1  0
 36138  1  0
 37 38  1  0
 37139  1  0
 37140  1  0
 38141  1  0
 38142  1  0
 39 40  1  0
 39143  1  0
 39144  1  0
 40 41  1  0
 40145  1  0
 40146  1  0
 41 47  1  0
 41147  1  6
 42 43  1  0
 42148  1  0
 42149  1  0
 43 44  1  0
 43150  1  0
 43151  1  0
 44 45  1  0
 44 48  1  6
 44 50  1  0
 45152  1  0
 45153  1  0
 46154  1  0
 47 49  1  0
 47155  1  0
 47156  1  0
 48157  1  0
 48158  1  0
 48159  1  0
 49160  1  0
 49161  1  0
 50162  1  0
 50163  1  0
 50164  1  0
 51 52  2  0
 51 55  1  0
 51 61  1  0
 52 56  1  0
 52 64  1  0
 53 54  1  0
 53 57  2  0
 53 65  1  0
 54 58  2  0
 54 68  1  0
 55 59  2  0
 55 74  1  0
 56 60  2  0
 56 79  1  0
 57 59  1  0
 57 76  1  0
 58 60  1  0
 58165  1  0
 59 60  1  0
 61 62  2  0
 61 69  1  0
 62 63  1  0
 62 72  1  0
 63 64  2  0
 63166  1  0
 64 81  1  0
 65 66  2  0
 65 77  1  0
 66 67  1  0
 66167  1  0
 67 68  2  0
 67168  1  0
 68169  1  0
 69 70  2  0
 69 73  1  0
 70 71  1  0
 70170  1  0
 71 72  2  0
 71171  1  0
 72172  1  0
 73 74  2  0
 73 84  1  0
 74 75  1  0
 75 76  2  0
 75173  1  0
 76 78  1  0
 77 78  2  0
 77174  1  0
 78175  1  0
 79 80  1  0
 79 85  1  0
 79176  1  6
 80 81  1  0
 80 82  1  0
 80177  1  6
 81178  1  0
 81179  1  0
 82 83  2  0
 82180  1  0
 85117  1  0
 85181  1  0
 85182  1  0
 86 87  2  0
 86 89  1  0
 86 99  1  0
 87 90  1  0
 87102  1  0
 88 91  2  0
 88 92  1  0
 88116  1  0
 89 95  2  0
 89108  1  0
 90 96  2  0
 90111  1  0
 91 97  1  0
 91114  1  0
 92 98  1  0
 92183  1  0
 93 95  1  0
 93 97  2  0
 93110  1  0
 94 96  1  0
 94 98  2  0
 94184  1  0
 95 96  1  0
 97 98  1  0
 99100  2  0
 99103  1  0
100101  1  0
100106  1  0
101102  2  0
101185  1  0
102113  1  0
103104  2  0
103107  1  0
104105  1  0
104186  1  0
105106  2  0
105187  1  0
106188  1  0
107108  2  0
107115  1  0
108109  1  0
109110  1  0
109189  1  0
109190  1  0
110191  1  0
110192  1  0
111112  1  0
111193  1  0
111194  1  0
112113  1  0
112195  1  0
112196  1  0
113197  1  0
113198  1  0
114199  1  0
114200  1  0
114201  1  0
115202  1  0
115203  1  0
115204  1  0
116117  1  0
116205  1  0
116206  1  0
M  END
