
     RDKit          3D

295329  0  0  0  0  0  0  0  0999 V2000
   -1.4430   -1.4660    1.1520 C   0  0  0  0  0  0  0  0  0  0  0  0
   -2.7650    4.3280   -6.0410 C   0  0  0  0  0  0  0  0  0  0  0  0
   -1.5750    5.1190   -5.9500 C   0  0  0  0  0  0  0  0  0  0  0  0
   -2.4270   -0.5700    0.6760 C   0  0  0  0  0  0  0  0  0  0  0  0
   -0.0690   -1.0940    1.0700 C   0  0  0  0  0  0  0  0  0  0  0  0
   -3.0410    3.3420   -5.0660 C   0  0  0  0  0  0  0  0  0  0  0  0
   -0.6640    4.9260   -4.8890 C   0  0  0  0  0  0  0  0  0  0  0  0
   -1.9760    0.5420   -0.0710 C   0  0  0  0  0  0  0  0  0  0  0  0
    1.6010    0.6870    0.6810 C   0  0  0  0  0  0  0  0  0  0  0  0
    1.9780    1.8670    0.0510 C   0  0  0  0  0  0  0  0  0  0  0  0
    1.6620    3.6090   -1.5950 C   0  0  0  0  0  0  0  0  0  0  0  0
    0.9600    4.1910   -2.6660 C   0  0  0  0  0  0  0  0  0  0  0  0
   -2.1630    2.2080   -2.8500 C   0  0  0  0  0  0  0  0  0  0  0  0
    0.3100    0.1660    0.5300 C   0  0  0  0  0  0  0  0  0  0  0  0
    1.1480    2.4980   -0.8650 C   0  0  0  0  0  0  0  0  0  0  0  0
   -2.1480    3.1590   -4.0260 C   0  0  0  0  0  0  0  0  0  0  0  0
   -1.0160    3.9360   -3.9720 C   0  0  0  0  0  0  0  0  0  0  0  0
   -0.6200    0.9060   -0.2230 C   0  0  0  0  0  0  0  0  0  0  0  0
   -0.2590    3.5930   -2.9110 C   0  0  0  0  0  0  0  0  0  0  0  0
   -0.8490    2.5680   -2.1660 C   0  0  0  0  0  0  0  0  0  0  0  0
   -0.1620    1.9900   -1.0760 C   0  0  0  0  0  0  0  0  0  0  0  0
    0.5420    5.6530   -4.7100 C   0  0  0  0  0  0  0  0  0  0  0  0
    1.3240    5.2700   -3.5440 C   0  0  0  0  0  0  0  0  0  0  0  0
   -1.8540   -2.7320    1.6520 C   0  0  0  0  0  0  0  0  0  0  0  0
   -3.2250   -3.0210    1.8120 C   0  0  0  0  0  0  0  0  0  0  0  0
   -4.1790   -2.0870    1.4200 C   0  0  0  0  0  0  0  0  0  0  0  0
   -3.8070   -0.8510    0.8950 C   0  0  0  0  0  0  0  0  0  0  0  0
   -3.6330    4.5540   -7.1160 C   0  0  0  0  0  0  0  0  0  0  0  0
   -3.3500    5.5360   -8.0660 C   0  0  0  0  0  0  0  0  0  0  0  0
   -2.1890    6.3110   -7.9590 C   0  0  0  0  0  0  0  0  0  0  0  0
   -1.2890    6.1050   -6.9060 C   0  0  0  0  0  0  0  0  0  0  0  0
   -0.1120    6.8590   -6.7720 C   0  0  0  0  0  0  0  0  0  0  0  0
    0.8010    6.6530   -5.7070 C   0  0  0  0  0  0  0  0  0  0  0  0
    1.0050   -2.1300    1.4460 C   0  0  0  0  0  0  0  0  0  0  0  0
    0.5150   -3.5600    1.0720 C   0  0  2  0  0  0  0  0  0  0  0  0
   -0.7770   -3.7620    1.9640 C   0  0  1  0  0  0  0  0  0  0  0  0
   -3.7380   -4.2730    2.4230 C   0  0  0  0  0  0  0  0  0  0  0  0
   -4.9350   -4.4670    2.6130 O   0  0  0  0  0  0  0  0  0  0  0  0
    2.5030    6.0570   -3.1260 C   0  0  0  0  0  0  0  0  0  0  0  0
    3.6030    5.8210   -3.6050 O   0  0  0  0  0  0  0  0  0  0  0  0
    2.3220    7.0760   -2.0070 C   0  0  0  0  0  0  0  0  0  0  0  0
    0.9460    7.7120   -1.9140 C   0  0  0  0  0  0  0  0  0  0  0  0
   -0.5320   -3.7620    3.4890 C   0  0  0  0  0  0  0  0  0  0  0  0
    1.5780   -4.6640    1.4280 C   0  0  0  0  0  0  0  0  0  0  0  0
    0.2020   -3.5950   -0.4930 C   0  0  0  0  0  0  0  0  0  0  0  0
    2.0480    7.4960   -5.7190 C   0  0  0  0  0  0  0  0  0  0  0  0
   -4.9020    0.1540    0.5550 C   0  0  0  0  0  0  0  0  0  0  0  0
   -4.9320    4.2640    6.2140 C   0  0  0  0  0  0  0  0  0  0  0  0
   -4.9680    4.9830    4.9840 C   0  0  0  0  0  0  0  0  0  0  0  0
   -3.2740    8.3490    7.7500 C   0  0  0  0  0  0  0  0  0  0  0  0
   -4.6390    4.9400    7.4410 C   0  0  0  0  0  0  0  0  0  0  0  0
   -4.7310    6.3790    4.9920 C   0  0  0  0  0  0  0  0  0  0  0  0
   -3.4630    7.1520    8.3300 C   0  0  0  0  0  0  0  0  0  0  0  0
   -3.6760    8.3740    6.3040 C   0  0  2  0  0  0  0  0  0  0  0  0
   -4.1450    6.2660    7.3580 C   0  0  0  0  0  0  0  0  0  0  0  0
   -4.2110    6.9690    6.1420 C   0  0  0  0  0  0  0  0  0  0  0  0
   -5.2350    2.8690    6.2010 C   0  0  0  0  0  0  0  0  0  0  0  0
   -5.5240    2.1990    4.9730 C   0  0  0  0  0  0  0  0  0  0  0  0
   -5.5460    2.9230    3.7520 C   0  0  0  0  0  0  0  0  0  0  0  0
   -5.2660    4.3160    3.7690 C   0  0  0  0  0  0  0  0  0  0  0  0
   -5.2730    2.1390    7.4200 C   0  0  0  0  0  0  0  0  0  0  0  0
   -5.5130    0.7530    7.4120 C   0  0  0  0  0  0  0  0  0  0  0  0
   -5.7860    0.1210    6.1990 C   0  0  0  0  0  0  0  0  0  0  0  0
   -5.8200    0.8120    4.9740 C   0  0  0  0  0  0  0  0  0  0  0  0
   -5.1250    2.8390    8.6190 C   0  0  0  0  0  0  0  0  0  0  0  0
   -4.8780    4.2110    8.6290 C   0  0  0  0  0  0  0  0  0  0  0  0
   -5.8360    2.2580    2.5210 C   0  0  0  0  0  0  0  0  0  0  0  0
   -5.9730    3.0620    1.3620 C   0  0  0  0  0  0  0  0  0  0  0  0
   -5.6560    4.4090    1.3580 C   0  0  0  0  0  0  0  0  0  0  0  0
   -5.2640    5.0230    2.5420 C   0  0  0  0  0  0  0  0  0  0  0  0
   -6.1170    0.1500    3.7590 C   0  0  0  0  0  0  0  0  0  0  0  0
   -5.9990    0.8490    2.5450 C   0  0  0  0  0  0  0  0  0  0  0  0
   -5.1380    7.2080    3.7810 C   0  0  1  0  0  0  0  0  0  0  0  0
   -4.7850    6.4610    2.4830 C   0  0  1  0  0  0  0  0  0  0  0  0
   -5.1310    4.8380    9.9420 C   0  0  0  0  0  0  0  0  0  0  0  0
   -5.7750    5.8720   10.0640 O   0  0  0  0  0  0  0  0  0  0  0  0
   -6.0760    0.0800    1.3960 O   0  0  0  0  0  0  0  0  0  0  0  0
   -6.4340    2.5280    0.1840 O   0  0  0  0  0  0  0  0  0  0  0  0
   -6.6520    7.5420    3.9010 C   0  0  0  0  0  0  0  0  0  0  0  0
   -2.4340    8.6550    5.4330 C   0  0  0  0  0  0  0  0  0  0  0  0
   -7.1330    8.5660    2.8830 C   0  0  0  0  0  0  0  0  0  0  0  0
   -2.8880    6.7960    9.6540 C   0  0  0  0  0  0  0  0  0  0  0  0
   -3.2760    6.4870    2.1940 C   0  0  0  0  0  0  0  0  0  0  0  0
   -2.0370   10.1260    5.4390 C   0  0  0  0  0  0  0  0  0  0  0  0
   -6.5490   -1.3010    3.7610 C   0  0  0  0  0  0  0  0  0  0  0  0
   -5.5190   -0.0860    8.6680 C   0  0  0  0  0  0  0  0  0  0  0  0
    4.1930   -0.5690   -3.6550 C   0  0  0  0  0  0  0  0  0  0  0  0
    4.5710    0.7640   -3.8770 C   0  0  0  0  0  0  0  0  0  0  0  0
    5.8820   -0.2730    1.0590 C   0  0  0  0  0  0  0  0  0  0  0  0
    5.8540    1.1290    1.0140 C   0  0  0  0  0  0  0  0  0  0  0  0
    4.3490   -1.1180   -2.3540 C   0  0  0  0  0  0  0  0  0  0  0  0
    5.1300    1.5220   -2.8050 C   0  0  0  0  0  0  0  0  0  0  0  0
    5.5740   -0.9990   -0.1230 C   0  0  0  0  0  0  0  0  0  0  0  0
    5.5840    1.7510   -0.2460 C   0  0  0  0  0  0  0  0  0  0  0  0
    5.0370   -0.3970   -1.3030 C   0  0  0  0  0  0  0  0  0  0  0  0
    5.2550    0.9960   -1.4560 C   0  0  0  0  0  0  0  0  0  0  0  0
    3.7080   -1.3560   -4.7440 C   0  0  0  0  0  0  0  0  0  0  0  0
    3.4860   -0.7800   -6.0130 C   0  0  0  0  0  0  0  0  0  0  0  0
    3.7870    0.5630   -6.2040 C   0  0  0  0  0  0  0  0  0  0  0  0
    4.3780    1.3070   -5.1760 C   0  0  0  0  0  0  0  0  0  0  0  0
    6.2270   -0.9390    2.2690 C   0  0  0  0  0  0  0  0  0  0  0  0
    6.5420   -0.1910    3.4220 C   0  0  0  0  0  0  0  0  0  0  0  0
    6.4990    1.2090    3.4180 C   0  0  0  0  0  0  0  0  0  0  0  0
    6.1450    1.8640    2.2120 C   0  0  0  0  0  0  0  0  0  0  0  0
    3.4960   -2.7430   -4.6020 C   0  0  0  0  0  0  0  0  0  0  0  0
    3.0670   -3.5190   -5.6890 C   0  0  0  0  0  0  0  0  0  0  0  0
    2.8380   -2.9260   -6.9150 C   0  0  0  0  0  0  0  0  0  0  0  0
    3.0210   -1.5610   -7.0860 C   0  0  0  0  0  0  0  0  0  0  0  0
    3.6060   -2.4600   -2.1140 C   0  0  2  0  0  0  0  0  0  0  0  0
    3.8720   -3.4020   -3.3020 C   0  0  0  0  0  0  0  0  0  0  0  0
    5.6790    2.9010   -3.1730 C   0  0  0  0  0  0  0  0  0  0  0  0
    6.0230    3.0520   -4.6490 C   0  0  0  0  0  0  0  0  0  0  0  0
    4.8010    2.7230   -5.4830 C   0  0  0  0  0  0  0  0  0  0  0  0
    6.1340   -2.4170   -0.1470 C   0  0  0  0  0  0  0  0  0  0  0  0
    5.6940   -3.1450    1.1060 C   0  0  0  0  0  0  0  0  0  0  0  0
    6.2960   -2.4580    2.3270 C   0  0  0  0  0  0  0  0  0  0  0  0
    5.6090    3.2780   -0.2490 C   0  0  0  0  0  0  0  0  0  0  0  0
    5.2320    3.9030    1.0850 C   0  0  0  0  0  0  0  0  0  0  0  0
    6.1320    3.3780    2.1790 C   0  0  0  0  0  0  0  0  0  0  0  0
    6.9090   -0.9080    4.6690 C   0  0  0  0  0  0  0  0  0  0  0  0
    6.0170   -1.3580    5.3830 O   0  0  0  0  0  0  0  0  0  0  0  0
    8.3910   -1.0670    4.9500 C   0  0  0  0  0  0  0  0  0  0  0  0
    2.4850   -3.7340   -7.9590 O   0  0  0  0  0  0  0  0  0  0  0  0
    8.6660   -1.1750    6.4380 C   0  0  0  0  0  0  0  0  0  0  0  0
    2.0780   -2.2830   -1.8370 C   0  0  0  0  0  0  0  0  0  0  0  0
    1.3830   -3.6250   -1.4950 C   0  0  0  0  0  0  0  0  0  0  0  0
    6.7570    2.0100    4.6700 C   0  0  0  0  0  0  0  0  0  0  0  0
   -1.0270   -7.2630   -4.0560 C   0  0  0  0  0  0  0  0  0  0  0  0
    0.3420   -7.4010   -4.3810 C   0  0  0  0  0  0  0  0  0  0  0  0
    0.6630   -6.7660    0.1680 C   0  0  0  0  0  0  0  0  0  0  0  0
   -1.4240   -7.2700   -2.7030 C   0  0  0  0  0  0  0  0  0  0  0  0
    1.3200   -7.5970   -3.3440 C   0  0  0  0  0  0  0  0  0  0  0  0
   -0.5990   -7.0910   -0.3160 C   0  0  0  0  0  0  0  0  0  0  0  0
    1.5530   -7.1400   -0.8260 N   0  0  0  0  0  0  0  0  0  0  0  0
   -0.4500   -7.2490   -1.7100 C   0  0  0  0  0  0  0  0  0  0  0  0
    0.8930   -7.3500   -2.0220 C   0  0  0  0  0  0  0  0  0  0  0  0
   -2.0280   -7.1250   -5.0370 C   0  0  0  0  0  0  0  0  0  0  0  0
   -1.6630   -7.0690   -6.4030 C   0  0  0  0  0  0  0  0  0  0  0  0
   -0.2750   -7.1430   -6.7580 C   0  0  0  0  0  0  0  0  0  0  0  0
    0.7180   -7.3190   -5.7460 C   0  0  0  0  0  0  0  0  0  0  0  0
   -3.3930   -7.0430   -4.6400 C   0  0  0  0  0  0  0  0  0  0  0  0
   -4.3870   -6.8950   -5.6210 C   0  0  0  0  0  0  0  0  0  0  0  0
   -4.0530   -6.8270   -6.9620 C   0  0  0  0  0  0  0  0  0  0  0  0
   -2.7140   -6.9100   -7.3410 C   0  0  0  0  0  0  0  0  0  0  0  0
   -3.7330   -7.1170   -3.2720 C   0  0  0  0  0  0  0  0  0  0  0  0
   -2.7600   -7.2110   -2.2710 C   0  0  0  0  0  0  0  0  0  0  0  0
    0.1740   -7.0220   -8.0970 C   0  0  0  0  0  0  0  0  0  0  0  0
    1.5240   -6.9950   -8.4340 C   0  0  0  0  0  0  0  0  0  0  0  0
    2.4630   -7.1180   -7.4330 C   0  0  0  0  0  0  0  0  0  0  0  0
    2.0910   -7.3330   -6.1070 C   0  0  0  0  0  0  0  0  0  0  0  0
    2.6640   -8.1820   -3.7860 C   0  0  1  0  0  0  0  0  0  0  0  0
    3.1630   -7.4690   -5.0490 C   0  0  0  0  0  0  0  0  0  0  0  0
   -3.1410   -7.3910   -0.7740 C   0  0  2  0  0  0  0  0  0  0  0  0
   -1.9860   -7.0590    0.2690 C   0  0  1  0  0  0  0  0  0  0  0  0
   -2.0350   -7.8880    1.5440 C   0  0  0  0  0  0  0  0  0  0  0  0
   -3.0700   -8.2530    2.0930 O   0  0  0  0  0  0  0  0  0  0  0  0
   -3.6770   -8.8460   -0.6390 C   0  0  0  0  0  0  0  0  0  0  0  0
   -4.8830   -9.0750   -0.5080 O   0  0  0  0  0  0  0  0  0  0  0  0
   -2.6940   -9.9980   -0.8230 C   0  0  0  0  0  0  0  0  0  0  0  0
    3.7770   -6.9370   -7.7540 O   0  0  0  0  0  0  0  0  0  0  0  0
   -5.7050   -6.8080   -5.2470 O   0  0  0  0  0  0  0  0  0  0  0  0
    3.7580   -8.2860   -2.7070 C   0  0  0  0  0  0  0  0  0  0  0  0
   -3.2280  -11.2940   -0.2340 C   0  0  0  0  0  0  0  0  0  0  0  0
    5.0210   -8.9990   -3.1800 C   0  0  0  0  0  0  0  0  0  0  0  0
   -4.2980   -6.4160   -0.4140 C   0  0  0  0  0  0  0  0  0  0  0  0
    1.1400   -6.1590    1.4610 C   0  0  0  0  0  0  0  0  0  0  0  0
   -3.9380    2.7310   -5.1300 H   0  0  0  0  0  0  0  0  0  0  0  0
   -2.7190    1.1760   -0.5350 H   0  0  0  0  0  0  0  0  0  0  0  0
    2.3360    0.1990    1.3190 H   0  0  0  0  0  0  0  0  0  0  0  0
    2.9810    2.2290    0.2230 H   0  0  0  0  0  0  0  0  0  0  0  0
    2.6610    3.9680   -1.3650 H   0  0  0  0  0  0  0  0  0  0  0  0
   -2.1570    1.1670   -3.1870 H   0  0  0  0  0  0  0  0  0  0  0  0
   -3.0220    2.4350   -2.2120 H   0  0  0  0  0  0  0  0  0  0  0  0
   -5.2370   -2.3230    1.5270 H   0  0  0  0  0  0  0  0  0  0  0  0
   -4.5420    3.9690   -7.2300 H   0  0  0  0  0  0  0  0  0  0  0  0
   -4.0330    5.7060   -8.8950 H   0  0  0  0  0  0  0  0  0  0  0  0
   -1.9960    7.0750   -8.7080 H   0  0  0  0  0  0  0  0  0  0  0  0
    0.1100    7.6200   -7.5200 H   0  0  0  0  0  0  0  0  0  0  0  0
    1.2300   -2.0260    2.5110 H   0  0  0  0  0  0  0  0  0  0  0  0
    1.9540   -1.9470    0.9410 H   0  0  0  0  0  0  0  0  0  0  0  0
   -1.1690   -4.7400    1.7030 H   0  0  0  0  0  0  0  0  0  0  0  0
   -3.0100   -5.0400    2.7210 H   0  0  0  0  0  0  0  0  0  0  0  0
    2.5680    6.5890   -1.0590 H   0  0  0  0  0  0  0  0  0  0  0  0
    3.0580    7.8720   -2.1690 H   0  0  0  0  0  0  0  0  0  0  0  0
    0.1780    6.9770   -1.6630 H   0  0  0  0  0  0  0  0  0  0  0  0
    0.6570    8.1840   -2.8590 H   0  0  0  0  0  0  0  0  0  0  0  0
    0.9350    8.4830   -1.1390 H   0  0  0  0  0  0  0  0  0  0  0  0
    0.2340   -4.4830    3.7840 H   0  0  0  0  0  0  0  0  0  0  0  0
   -0.2340   -2.7780    3.8660 H   0  0  0  0  0  0  0  0  0  0  0  0
   -1.4390   -4.0370    4.0340 H   0  0  0  0  0  0  0  0  0  0  0  0
    2.4540   -4.5670    0.7820 H   0  0  0  0  0  0  0  0  0  0  0  0
    1.9790   -4.4340    2.4260 H   0  0  0  0  0  0  0  0  0  0  0  0
   -0.4480   -2.7740   -0.8100 H   0  0  0  0  0  0  0  0  0  0  0  0
   -0.4120   -4.4770   -0.6860 H   0  0  0  0  0  0  0  0  0  0  0  0
    2.1350    8.0890   -4.8040 H   0  0  0  0  0  0  0  0  0  0  0  0
    2.0440    8.2170   -6.5430 H   0  0  0  0  0  0  0  0  0  0  0  0
    2.9340    6.8690   -5.8560 H   0  0  0  0  0  0  0  0  0  0  0  0
   -4.4760    1.1560    0.5690 H   0  0  0  0  0  0  0  0  0  0  0  0
   -5.2330   -0.0520   -0.4700 H   0  0  0  0  0  0  0  0  0  0  0  0
   -2.7790    9.1800    8.2350 H   0  0  0  0  0  0  0  0  0  0  0  0
   -4.4740    9.1060    6.1380 H   0  0  0  0  0  0  0  0  0  0  0  0
   -5.9800   -0.9500    6.2220 H   0  0  0  0  0  0  0  0  0  0  0  0
   -5.2810    2.3290    9.5680 H   0  0  0  0  0  0  0  0  0  0  0  0
   -5.6860    4.9780    0.4320 H   0  0  0  0  0  0  0  0  0  0  0  0
   -4.6100    8.1660    3.7760 H   0  0  0  0  0  0  0  0  0  0  0  0
   -5.2710    6.9650    1.6400 H   0  0  0  0  0  0  0  0  0  0  0  0
   -4.7730    4.2790   10.8240 H   0  0  0  0  0  0  0  0  0  0  0  0
   -6.8710    3.2350   -0.3210 H   0  0  0  0  0  0  0  0  0  0  0  0
   -7.2630    6.6360    3.8100 H   0  0  0  0  0  0  0  0  0  0  0  0
   -6.8570    7.9460    4.9000 H   0  0  0  0  0  0  0  0  0  0  0  0
   -2.6010    8.3630    4.3930 H   0  0  0  0  0  0  0  0  0  0  0  0
   -1.5780    8.0550    5.7710 H   0  0  0  0  0  0  0  0  0  0  0  0
   -8.1880    8.7970    3.0570 H   0  0  0  0  0  0  0  0  0  0  0  0
   -6.5680    9.4990    2.9650 H   0  0  0  0  0  0  0  0  0  0  0  0
   -7.0490    8.1960    1.8580 H   0  0  0  0  0  0  0  0  0  0  0  0
   -2.0190    7.4270    9.8810 H   0  0  0  0  0  0  0  0  0  0  0  0
   -2.5290    5.7610    9.6730 H   0  0  0  0  0  0  0  0  0  0  0  0
   -3.6060    6.9560   10.4590 H   0  0  0  0  0  0  0  0  0  0  0  0
   -3.0520    5.9950    1.2400 H   0  0  0  0  0  0  0  0  0  0  0  0
   -2.9140    7.5190    2.1230 H   0  0  0  0  0  0  0  0  0  0  0  0
   -2.6930    5.9740    2.9680 H   0  0  0  0  0  0  0  0  0  0  0  0
   -1.7670   10.4670    6.4430 H   0  0  0  0  0  0  0  0  0  0  0  0
   -1.1680   10.2820    4.7920 H   0  0  0  0  0  0  0  0  0  0  0  0
   -2.8540   10.7530    5.0690 H   0  0  0  0  0  0  0  0  0  0  0  0
   -7.3150   -1.4750    4.5230 H   0  0  0  0  0  0  0  0  0  0  0  0
   -5.6930   -1.9530    3.9550 H   0  0  0  0  0  0  0  0  0  0  0  0
   -7.0160   -1.5980    2.8170 H   0  0  0  0  0  0  0  0  0  0  0  0
   -4.6300    0.1110    9.2730 H   0  0  0  0  0  0  0  0  0  0  0  0
   -6.4170    0.1250    9.2570 H   0  0  0  0  0  0  0  0  0  0  0  0
   -5.5100   -1.1560    8.4370 H   0  0  0  0  0  0  0  0  0  0  0  0
    3.6220    1.0290   -7.1700 H   0  0  0  0  0  0  0  0  0  0  0  0
    2.9180   -4.5860   -5.5780 H   0  0  0  0  0  0  0  0  0  0  0  0
    2.8410   -1.1010   -8.0500 H   0  0  0  0  0  0  0  0  0  0  0  0
    3.9780   -2.9500   -1.2190 H   0  0  0  0  0  0  0  0  0  0  0  0
    3.3400   -4.3500   -3.1840 H   0  0  0  0  0  0  0  0  0  0  0  0
    4.9420   -3.6390   -3.3470 H   0  0  0  0  0  0  0  0  0  0  0  0
    4.9370    3.6600   -2.9230 H   0  0  0  0  0  0  0  0  0  0  0  0
    6.6070    3.0840   -2.6270 H   0  0  0  0  0  0  0  0  0  0  0  0
    6.3620    4.0740   -4.8550 H   0  0  0  0  0  0  0  0  0  0  0  0
    6.8520    2.3770   -4.9110 H   0  0  0  0  0  0  0  0  0  0  0  0
    5.0640    2.8230   -6.5420 H   0  0  0  0  0  0  0  0  0  0  0  0
    3.9720    3.4110   -5.2710 H   0  0  0  0  0  0  0  0  0  0  0  0
    7.2320   -2.3360   -0.1740 H   0  0  0  0  0  0  0  0  0  0  0  0
    5.8960   -2.9860   -1.0440 H   0  0  0  0  0  0  0  0  0  0  0  0
    4.6010   -3.1470    1.1860 H   0  0  0  0  0  0  0  0  0  0  0  0
    6.0180   -4.1920    1.0800 H   0  0  0  0  0  0  0  0  0  0  0  0
    7.3520   -2.7460    2.4130 H   0  0  0  0  0  0  0  0  0  0  0  0
    5.7730   -2.8320    3.2150 H   0  0  0  0  0  0  0  0  0  0  0  0
    4.8740    3.6690   -0.9460 H   0  0  0  0  0  0  0  0  0  0  0  0
    6.6100    3.6170   -0.5390 H   0  0  0  0  0  0  0  0  0  0  0  0
    4.1870    3.6840    1.3280 H   0  0  0  0  0  0  0  0  0  0  0  0
    5.3160    4.9950    1.0180 H   0  0  0  0  0  0  0  0  0  0  0  0
    7.1560    3.7400    2.0350 H   0  0  0  0  0  0  0  0  0  0  0  0
    5.7600    3.7920    3.1240 H   0  0  0  0  0  0  0  0  0  0  0  0
    8.9370   -0.2060    4.5440 H   0  0  0  0  0  0  0  0  0  0  0  0
    8.7430   -1.9670    4.4350 H   0  0  0  0  0  0  0  0  0  0  0  0
    2.2490   -3.1650   -8.7120 H   0  0  0  0  0  0  0  0  0  0  0  0
    8.2310   -2.0890    6.8520 H   0  0  0  0  0  0  0  0  0  0  0  0
    8.2410   -0.3280    6.9830 H   0  0  0  0  0  0  0  0  0  0  0  0
    9.7430   -1.2000    6.6270 H   0  0  0  0  0  0  0  0  0  0  0  0
    1.5730   -1.8290   -2.6990 H   0  0  0  0  0  0  0  0  0  0  0  0
    1.9650   -1.5620   -1.0330 H   0  0  0  0  0  0  0  0  0  0  0  0
    0.9780   -4.0100   -2.4450 H   0  0  0  0  0  0  0  0  0  0  0  0
    2.1190   -4.3640   -1.1860 H   0  0  0  0  0  0  0  0  0  0  0  0
    5.8140    2.4180    5.0480 H   0  0  0  0  0  0  0  0  0  0  0  0
    7.2080    1.4280    5.4750 H   0  0  0  0  0  0  0  0  0  0  0  0
    7.4560    2.8280    4.4680 H   0  0  0  0  0  0  0  0  0  0  0  0
    2.5570   -7.0800   -0.7400 H   0  0  0  0  0  0  0  0  0  0  0  0
   -4.8120   -6.7020   -7.7300 H   0  0  0  0  0  0  0  0  0  0  0  0
   -2.5100   -6.8580   -8.4050 H   0  0  0  0  0  0  0  0  0  0  0  0
   -4.7880   -7.1170   -3.0040 H   0  0  0  0  0  0  0  0  0  0  0  0
   -0.5240   -6.9060   -8.9210 H   0  0  0  0  0  0  0  0  0  0  0  0
    1.8270   -6.8500   -9.4670 H   0  0  0  0  0  0  0  0  0  0  0  0
    2.4250   -9.2200   -4.0740 H   0  0  0  0  0  0  0  0  0  0  0  0
    3.5460   -6.4770   -4.7830 H   0  0  0  0  0  0  0  0  0  0  0  0
    3.9980   -8.0430   -5.4690 H   0  0  0  0  0  0  0  0  0  0  0  0
   -2.1260   -6.0240    0.5840 H   0  0  0  0  0  0  0  0  0  0  0  0
   -1.0680   -8.1050    2.0300 H   0  0  0  0  0  0  0  0  0  0  0  0
   -2.5050  -10.1300   -1.8910 H   0  0  0  0  0  0  0  0  0  0  0  0
   -1.7470   -9.7650   -0.3330 H   0  0  0  0  0  0  0  0  0  0  0  0
    3.8480   -5.9810   -7.9510 H   0  0  0  0  0  0  0  0  0  0  0  0
   -6.2620   -6.7540   -6.0440 H   0  0  0  0  0  0  0  0  0  0  0  0
    4.0280   -7.2910   -2.3340 H   0  0  0  0  0  0  0  0  0  0  0  0
    3.3650   -8.8630   -1.8580 H   0  0  0  0  0  0  0  0  0  0  0  0
   -3.5040  -11.1620    0.8170 H   0  0  0  0  0  0  0  0  0  0  0  0
   -4.1140  -11.6380   -0.7760 H   0  0  0  0  0  0  0  0  0  0  0  0
   -2.4700  -12.0800   -0.2920 H   0  0  0  0  0  0  0  0  0  0  0  0
    5.5960   -8.3770   -3.8760 H   0  0  0  0  0  0  0  0  0  0  0  0
    5.6690   -9.2280   -2.3250 H   0  0  0  0  0  0  0  0  0  0  0  0
    4.7770   -9.9460   -3.6770 H   0  0  0  0  0  0  0  0  0  0  0  0
   -5.2160   -6.6010   -0.9800 H   0  0  0  0  0  0  0  0  0  0  0  0
   -4.0050   -5.3730   -0.5960 H   0  0  0  0  0  0  0  0  0  0  0  0
   -4.5730   -6.5130    0.6420 H   0  0  0  0  0  0  0  0  0  0  0  0
    0.3790   -6.2960    2.2320 H   0  0  0  0  0  0  0  0  0  0  0  0
    2.0010   -6.7440    1.8050 H   0  0  0  0  0  0  0  0  0  0  0  0
  1  4  2  0
  1  5  1  0
  1 24  1  0
  2  3  1  0
  2  6  2  0
  2 28  1  0
  3  7  2  0
  3 31  1  0
  4  8  1  0
  4 27  1  0
  5 14  2  0
  5 34  1  0
  6 16  1  0
  6167  1  0
  7 17  1  0
  7 22  1  0
  8 18  2  0
  8168  1  0
  9 10  2  0
  9 14  1  0
  9169  1  0
 10 15  1  0
 10170  1  0
 11 12  1  0
 11 15  2  0
 11171  1  0
 12 19  2  0
 12 23  1  0
 13 16  1  0
 13 20  1  0
 13172  1  0
 13173  1  0
 14 18  1  0
 15 21  1  0
 16 17  2  0
 17 19  1  0
 18 21  1  0
 19 20  1  0
 20 21  2  0
 22 23  2  0
 22 33  1  0
 23 39  1  0
 24 25  2  0
 24 36  1  0
 25 26  1  0
 25 37  1  0
 26 27  2  0
 26174  1  0
 27 47  1  0
 28 29  2  0
 28175  1  0
 29 30  1  0
 29176  1  0
 30 31  2  0
 30177  1  0
 31 32  1  0
 32 33  2  0
 32178  1  0
 33 46  1  0
 34 35  1  0
 34179  1  0
 34180  1  0
 35 36  1  0
 35 44  1  6
 35 45  1  0
 36 43  1  0
 36181  1  6
 37 38  2  0
 37182  1  0
 39 40  2  0
 39 41  1  0
 41 42  1  0
 41183  1  0
 41184  1  0
 42185  1  0
 42186  1  0
 42187  1  0
 43188  1  0
 43189  1  0
 43190  1  0
 44166  1  0
 44191  1  0
 44192  1  0
 45126  1  0
 45193  1  0
 45194  1  0
 46195  1  0
 46196  1  0
 46197  1  0
 47 77  1  0
 47198  1  0
 47199  1  0
 48 49  2  0
 48 51  1  0
 48 57  1  0
 49 52  1  0
 49 60  1  0
 50 53  2  0
 50 54  1  0
 50200  1  0
 51 55  2  0
 51 66  1  0
 52 56  2  0
 52 73  1  0
 53 55  1  0
 53 82  1  0
 54 56  1  0
 54 80  1  0
 54201  1  1
 55 56  1  0
 57 58  2  0
 57 61  1  0
 58 59  1  0
 58 64  1  0
 59 60  2  0
 59 67  1  0
 60 70  1  0
 61 62  2  0
 61 65  1  0
 62 63  1  0
 62 86  1  0
 63 64  2  0
 63202  1  0
 64 71  1  0
 65 66  2  0
 65203  1  0
 66 75  1  0
 67 68  2  0
 67 72  1  0
 68 69  1  0
 68 78  1  0
 69 70  2  0
 69204  1  0
 70 74  1  0
 71 72  2  0
 71 85  1  0
 72 77  1  0
 73 74  1  0
 73 79  1  0
 73205  1  6
 74 83  1  0
 74206  1  6
 75 76  2  0
 75207  1  0
 78208  1  0
 79 81  1  0
 79209  1  0
 79210  1  0
 80 84  1  0
 80211  1  0
 80212  1  0
 81213  1  0
 81214  1  0
 81215  1  0
 82216  1  0
 82217  1  0
 82218  1  0
 83219  1  0
 83220  1  0
 83221  1  0
 84222  1  0
 84223  1  0
 84224  1  0
 85225  1  0
 85226  1  0
 85227  1  0
 86228  1  0
 86229  1  0
 86230  1  0
 87 88  1  0
 87 91  1  0
 87 97  2  0
 88 92  1  0
 88100  2  0
 89 90  1  0
 89 93  2  0
 89101  1  0
 90 94  2  0
 90104  1  0
 91 95  2  0
 91109  1  0
 92 96  2  0
 92111  1  0
 93 95  1  0
 93114  1  0
 94 96  1  0
 94117  1  0
 95 96  1  0
 97 98  1  0
 97105  1  0
 98 99  2  0
 98108  1  0
 99100  1  0
 99231  1  0
100113  1  0
101102  2  0
101116  1  0
102103  1  0
102120  1  0
103104  2  0
103127  1  0
104119  1  0
105106  2  0
105110  1  0
106107  1  0
106232  1  0
107108  2  0
107123  1  0
108233  1  0
109110  1  0
109125  1  0
109234  1  1
110235  1  0
110236  1  0
111112  1  0
111237  1  0
111238  1  0
112113  1  0
112239  1  0
112240  1  0
113241  1  0
113242  1  0
114115  1  0
114243  1  0
114244  1  0
115116  1  0
115245  1  0
115246  1  0
116247  1  0
116248  1  0
117118  1  0
117249  1  0
117250  1  0
118119  1  0
118251  1  0
118252  1  0
119253  1  0
119254  1  0
120121  2  0
120122  1  0
122124  1  0
122255  1  0
122256  1  0
123257  1  0
124258  1  0
124259  1  0
124260  1  0
125126  1  0
125261  1  0
125262  1  0
126263  1  0
126264  1  0
127265  1  0
127266  1  0
127267  1  0
128129  2  0
128131  1  0
128137  1  0
129132  1  0
129140  1  0
130133  2  0
130134  1  0
130166  1  0
131135  2  0
131146  1  0
132136  2  0
132151  1  0
133135  1  0
133154  1  0
134136  1  0
134268  1  0
135136  1  0
137138  2  0
137141  1  0
138139  1  0
138144  1  0
139140  2  0
139147  1  0
140150  1  0
141142  2  0
141145  1  0
142143  1  0
142161  1  0
143144  2  0
143269  1  0
144270  1  0
145146  2  0
145271  1  0
146153  1  0
147148  2  0
147272  1  0
148149  1  0
148273  1  0
149150  2  0
149160  1  0
150152  1  0
151152  1  0
151162  1  0
151274  1  6
152275  1  0
152276  1  0
153154  1  0
153157  1  0
153165  1  1
154155  1  0
154277  1  1
155156  2  0
155278  1  0
157158  2  0
157159  1  0
159163  1  0
159279  1  0
159280  1  0
160281  1  0
161282  1  0
162164  1  0
162283  1  0
162284  1  0
163285  1  0
163286  1  0
163287  1  0
164288  1  0
164289  1  0
164290  1  0
165291  1  0
165292  1  0
165293  1  0
166294  1  0
166295  1  0
M  END
