
     RDKit          3D

 78 84  0  0  0  0  0  0  0  0999 V2000
    0.6800   -0.4660    2.7850 C   0  0  0  0  0  0  0  0  0  0  0  0
    1.3930   -1.4790    2.1090 C   0  0  0  0  0  0  0  0  0  0  0  0
   -2.5780    1.0560   -3.9770 C   0  0  0  0  0  0  0  0  0  0  0  0
   -2.0530   -0.1390   -4.4840 C   0  0  0  0  0  0  0  0  0  0  0  0
   -0.2970    0.3020    2.0450 C   0  0  0  0  0  0  0  0  0  0  0  0
    1.2030   -1.6250    0.7110 C   0  0  0  0  0  0  0  0  0  0  0  0
   -2.3460    1.3560   -2.6120 C   0  0  0  0  0  0  0  0  0  0  0  0
   -1.3150   -0.9720   -3.5860 C   0  0  0  0  0  0  0  0  0  0  0  0
   -1.5370    0.8020   -0.2710 C   0  0  0  0  0  0  0  0  0  0  0  0
   -0.3100   -1.4010   -1.2780 C   0  0  0  0  0  0  0  0  0  0  0  0
   -0.6040    0.0810    0.6230 C   0  0  0  0  0  0  0  0  0  0  0  0
    0.1070   -0.9810    0.0210 C   0  0  0  0  0  0  0  0  0  0  0  0
   -1.6620    0.5120   -1.6870 C   0  0  0  0  0  0  0  0  0  0  0  0
   -1.0940   -0.6550   -2.1970 C   0  0  0  0  0  0  0  0  0  0  0  0
    0.9620   -0.2540    4.1830 C   0  0  0  0  0  0  0  0  0  0  0  0
    1.7310   -1.1900    4.8850 C   0  0  0  0  0  0  0  0  0  0  0  0
    2.3640   -2.2330    4.2280 C   0  0  0  0  0  0  0  0  0  0  0  0
    2.2660   -2.3460    2.8400 C   0  0  0  0  0  0  0  0  0  0  0  0
   -3.3050    1.9150   -4.8460 C   0  0  0  0  0  0  0  0  0  0  0  0
   -3.4790    1.6300   -6.2090 C   0  0  0  0  0  0  0  0  0  0  0  0
   -2.9530    0.4480   -6.7320 C   0  0  0  0  0  0  0  0  0  0  0  0
   -2.2760   -0.4250   -5.8600 C   0  0  0  0  0  0  0  0  0  0  0  0
   -1.0950    1.2830    2.9080 C   0  0  2  0  0  0  0  0  0  0  0  0
   -0.1990    1.9530    3.9490 C   0  0  0  0  0  0  0  0  0  0  0  0
    0.4040    0.9540    4.9310 C   0  0  2  0  0  0  0  0  0  0  0  0
    2.2790   -2.4170   -0.0770 C   0  0  2  0  0  0  0  0  0  0  0  0
    3.4700   -2.8600    0.7840 C   0  0  0  0  0  0  0  0  0  0  0  0
    3.0030   -3.4550    2.1050 C   0  0  1  0  0  0  0  0  0  0  0  0
   -0.7220   -2.2150   -4.1480 C   0  0  0  0  0  0  0  0  0  0  0  0
    0.0380   -2.2050   -5.1140 O   0  0  0  0  0  0  0  0  0  0  0  0
   -4.2360    2.6030   -7.0390 C   0  0  0  0  0  0  0  0  0  0  0  0
   -4.7620    2.3170   -8.1090 O   0  0  0  0  0  0  0  0  0  0  0  0
    0.0100   -2.6860   -1.6590 O   0  0  0  0  0  0  0  0  0  0  0  0
    1.8310   -1.1110    6.2470 O   0  0  0  0  0  0  0  0  0  0  0  0
   -3.8860    3.0600   -4.3600 O   0  0  0  0  0  0  0  0  0  0  0  0
   -2.3100    0.5830    3.5350 C   0  0  0  0  0  0  0  0  0  0  0  0
    4.1760   -4.1730    2.8130 C   0  0  0  0  0  0  0  0  0  0  0  0
    2.8800   -1.6140   -1.2470 C   0  0  0  0  0  0  0  0  0  0  0  0
    5.3980   -3.3110    3.1260 C   0  0  0  0  0  0  0  0  0  0  0  0
    1.4520    1.7220    5.7600 C   0  0  0  0  0  0  0  0  0  0  0  0
   -3.0570    0.0830   -8.1880 C   0  0  0  0  0  0  0  0  0  0  0  0
   -2.4200    1.9250    0.2490 C   0  0  0  0  0  0  0  0  0  0  0  0
   -2.6640    2.3380   -2.2760 H   0  0  0  0  0  0  0  0  0  0  0  0
    2.9550   -2.9330    4.8040 H   0  0  0  0  0  0  0  0  0  0  0  0
   -1.8730   -1.3440   -6.2880 H   0  0  0  0  0  0  0  0  0  0  0  0
   -1.4200    2.1390    2.3270 H   0  0  0  0  0  0  0  0  0  0  0  0
   -0.7710    2.7160    4.4950 H   0  0  0  0  0  0  0  0  0  0  0  0
    0.6060    2.4930    3.4290 H   0  0  0  0  0  0  0  0  0  0  0  0
   -0.3850    0.5960    5.6030 H   0  0  0  0  0  0  0  0  0  0  0  0
    1.8290   -3.3440   -0.4460 H   0  0  0  0  0  0  0  0  0  0  0  0
    4.1290   -2.0000    0.9710 H   0  0  0  0  0  0  0  0  0  0  0  0
    4.0650   -3.5970    0.2260 H   0  0  0  0  0  0  0  0  0  0  0  0
    2.2570   -4.2390    1.9060 H   0  0  0  0  0  0  0  0  0  0  0  0
   -1.0450   -3.1670   -3.6780 H   0  0  0  0  0  0  0  0  0  0  0  0
   -4.3160    3.6280   -6.6420 H   0  0  0  0  0  0  0  0  0  0  0  0
   -0.3730   -3.2750   -0.9730 H   0  0  0  0  0  0  0  0  0  0  0  0
    2.4580   -1.7830    6.5620 H   0  0  0  0  0  0  0  0  0  0  0  0
   -4.2360    2.8820   -3.4720 H   0  0  0  0  0  0  0  0  0  0  0  0
   -2.8660    1.2660    4.1830 H   0  0  0  0  0  0  0  0  0  0  0  0
   -3.0020    0.2080    2.7710 H   0  0  0  0  0  0  0  0  0  0  0  0
   -2.0300   -0.2870    4.1330 H   0  0  0  0  0  0  0  0  0  0  0  0
    4.5090   -5.0030    2.1700 H   0  0  0  0  0  0  0  0  0  0  0  0
    3.8250   -4.6470    3.7380 H   0  0  0  0  0  0  0  0  0  0  0  0
    3.3070   -0.6680   -0.8950 H   0  0  0  0  0  0  0  0  0  0  0  0
    3.6890   -2.1730   -1.7290 H   0  0  0  0  0  0  0  0  0  0  0  0
    2.1580   -1.3790   -2.0310 H   0  0  0  0  0  0  0  0  0  0  0  0
    5.8440   -2.8900    2.2220 H   0  0  0  0  0  0  0  0  0  0  0  0
    5.1580   -2.4910    3.8050 H   0  0  0  0  0  0  0  0  0  0  0  0
    6.1660   -3.9190    3.6130 H   0  0  0  0  0  0  0  0  0  0  0  0
    2.3480    1.9400    5.1660 H   0  0  0  0  0  0  0  0  0  0  0  0
    1.7600    1.1730    6.6530 H   0  0  0  0  0  0  0  0  0  0  0  0
    1.0510    2.6800    6.1170 H   0  0  0  0  0  0  0  0  0  0  0  0
   -2.7180    0.9150   -8.8170 H   0  0  0  0  0  0  0  0  0  0  0  0
   -4.0870   -0.1880   -8.4440 H   0  0  0  0  0  0  0  0  0  0  0  0
   -2.4270   -0.7790   -8.4350 H   0  0  0  0  0  0  0  0  0  0  0  0
   -1.8280    2.8350    0.3990 H   0  0  0  0  0  0  0  0  0  0  0  0
   -2.9350    1.6160    1.1520 H   0  0  0  0  0  0  0  0  0  0  0  0
   -3.2650    2.1580   -0.3990 H   0  0  0  0  0  0  0  0  0  0  0  0
  1  2  2  0
  1  5  1  0
  1 15  1  0
  2  6  1  0
  2 18  1  0
  3  4  1  0
  3  7  2  0
  3 19  1  0
  4  8  2  0
  4 22  1  0
  5 11  2  0
  5 23  1  0
  6 12  2  0
  6 26  1  0
  7 13  1  0
  7 43  1  0
  8 14  1  0
  8 29  1  0
  9 11  1  0
  9 13  2  0
  9 42  1  0
 10 12  1  0
 10 14  2  0
 10 33  1  0
 11 12  1  0
 13 14  1  0
 15 16  2  0
 15 25  1  0
 16 17  1  0
 16 34  1  0
 17 18  2  0
 17 44  1  0
 18 28  1  0
 19 20  2  0
 19 35  1  0
 20 21  1  0
 20 31  1  0
 21 22  2  0
 21 41  1  0
 22 45  1  0
 23 24  1  0
 23 36  1  0
 23 46  1  6
 24 25  1  0
 24 47  1  0
 24 48  1  0
 25 40  1  0
 25 49  1  1
 26 27  1  0
 26 38  1  0
 26 50  1  6
 27 28  1  0
 27 51  1  0
 27 52  1  0
 28 37  1  0
 28 53  1  6
 29 30  2  0
 29 54  1  0
 31 32  2  0
 31 55  1  0
 33 56  1  0
 34 57  1  0
 35 58  1  0
 36 59  1  0
 36 60  1  0
 36 61  1  0
 37 39  1  0
 37 62  1  0
 37 63  1  0
 38 64  1  0
 38 65  1  0
 38 66  1  0
 39 67  1  0
 39 68  1  0
 39 69  1  0
 40 70  1  0
 40 71  1  0
 40 72  1  0
 41 73  1  0
 41 74  1  0
 41 75  1  0
 42 76  1  0
 42 77  1  0
 42 78  1  0
M  END
