
     RDKit          3D

 70 79  0  0  0  0  0  0  0  0999 V2000
    3.5530   -0.5480   -0.6890 C   0  0  0  0  0  0  0  0  0  0  0  0
    3.6330   -1.8500   -0.1960 C   0  0  0  0  0  0  0  0  0  0  0  0
    4.0050   -2.0090    1.1350 C   0  0  0  0  0  0  0  0  0  0  0  0
    4.2540   -0.9860    1.9880 N   0  0  0  0  0  0  0  0  0  0  0  0
    4.1310    0.2600    1.4820 C   0  0  0  0  0  0  0  0  0  0  0  0
    3.7950    0.5270    0.1640 C   0  0  0  0  0  0  0  0  0  0  0  0
    3.2250   -3.2440   -1.2230 S   0  0  0  0  0  0  0  0  0  0  0  0
   -0.1840    1.2090    1.1030 C   0  0  0  0  0  0  0  0  0  0  0  0
   -0.0010    0.0130    1.8110 C   0  0  0  0  0  0  0  0  0  0  0  0
   -0.1610   -1.1810   -3.2620 C   0  0  0  0  0  0  0  0  0  0  0  0
    0.2880   -2.3640   -2.6400 C   0  0  0  0  0  0  0  0  0  0  0  0
   -0.3160    1.1670   -0.3070 C   0  0  0  0  0  0  0  0  0  0  0  0
    0.1250   -1.2070    1.0740 C   0  0  0  0  0  0  0  0  0  0  0  0
   -0.3290   -0.0200   -2.4620 C   0  0  0  0  0  0  0  0  0  0  0  0
    0.5590   -2.3650   -1.2270 C   0  0  0  0  0  0  0  0  0  0  0  0
   -0.1570   -0.0480   -1.0420 C   0  0  0  0  0  0  0  0  0  0  0  0
    0.1830   -1.2490   -0.3760 C   0  0  0  0  0  0  0  0  0  0  0  0
   -0.2830    2.4480    1.8010 C   0  0  0  0  0  0  0  0  0  0  0  0
   -0.1440    2.5100    3.2090 C   0  0  0  0  0  0  0  0  0  0  0  0
    0.0620    1.3090    3.9280 C   0  0  0  0  0  0  0  0  0  0  0  0
    0.0370    0.0710    3.2360 C   0  0  0  0  0  0  0  0  0  0  0  0
   -0.3950   -1.1350   -4.6790 C   0  0  0  0  0  0  0  0  0  0  0  0
   -0.2090   -2.3100   -5.4480 C   0  0  0  0  0  0  0  0  0  0  0  0
    0.2230   -3.4800   -4.8330 C   0  0  0  0  0  0  0  0  0  0  0  0
    0.4750   -3.4970   -3.4660 C   0  0  0  0  0  0  0  0  0  0  0  0
   -0.5290    3.6400    1.0780 C   0  0  0  0  0  0  0  0  0  0  0  0
   -0.6140    4.8720    1.7350 C   0  0  0  0  0  0  0  0  0  0  0  0
   -0.4680    4.9420    3.1110 C   0  0  0  0  0  0  0  0  0  0  0  0
   -0.2410    3.7760    3.8350 C   0  0  0  0  0  0  0  0  0  0  0  0
   -0.6990    3.5820   -0.3020 C   0  0  0  0  0  0  0  0  0  0  0  0
   -0.6030    2.3710   -0.9890 C   0  0  0  0  0  0  0  0  0  0  0  0
   -0.7990    2.3670   -2.3650 C   0  0  0  0  0  0  0  0  0  0  0  0
   -0.6820    1.1930   -3.0980 C   0  0  0  0  0  0  0  0  0  0  0  0
   -0.7840    0.0930   -5.2410 C   0  0  0  0  0  0  0  0  0  0  0  0
   -0.9130    1.2380   -4.4680 C   0  0  0  0  0  0  0  0  0  0  0  0
    0.1530   -2.4880    1.8960 C   0  0  0  0  0  0  0  0  0  0  0  0
   -0.5410   -2.3900    3.2520 C   0  0  1  0  0  0  0  0  0  0  0  0
    0.0640   -1.2240    4.0250 C   0  0  0  0  0  0  0  0  0  0  0  0
   -0.4250   -2.4280   -6.9210 C   0  0  0  0  0  0  0  0  0  0  0  0
   -0.7450   -1.5170   -7.6710 O   0  0  0  0  0  0  0  0  0  0  0  0
   -2.0670   -2.2990    3.1300 C   0  0  0  0  0  0  0  0  0  0  0  0
    1.4720   -3.4820   -0.7100 C   0  0  0  0  0  0  0  0  0  0  0  0
    0.2550    1.3410    5.4290 C   0  0  0  0  0  0  0  0  0  0  0  0
    3.2680   -0.3610   -1.7210 H   0  0  0  0  0  0  0  0  0  0  0  0
    4.1040   -2.9960    1.5770 H   0  0  0  0  0  0  0  0  0  0  0  0
    4.3140    1.0680    2.1850 H   0  0  0  0  0  0  0  0  0  0  0  0
    3.7060    1.5480   -0.1890 H   0  0  0  0  0  0  0  0  0  0  0  0
    0.3830   -4.3940   -5.4010 H   0  0  0  0  0  0  0  0  0  0  0  0
    0.8150   -4.4460   -3.0610 H   0  0  0  0  0  0  0  0  0  0  0  0
   -0.8010    5.7880    1.1790 H   0  0  0  0  0  0  0  0  0  0  0  0
   -0.5410    5.8980    3.6210 H   0  0  0  0  0  0  0  0  0  0  0  0
   -0.1600    3.8750    4.9150 H   0  0  0  0  0  0  0  0  0  0  0  0
   -0.9080    4.4990   -0.8520 H   0  0  0  0  0  0  0  0  0  0  0  0
   -1.0460    3.2970   -2.8760 H   0  0  0  0  0  0  0  0  0  0  0  0
   -0.9810    0.2020   -6.3040 H   0  0  0  0  0  0  0  0  0  0  0  0
   -1.1970    2.1670   -4.9600 H   0  0  0  0  0  0  0  0  0  0  0  0
   -0.3290   -3.3010    1.3410 H   0  0  0  0  0  0  0  0  0  0  0  0
    1.2000   -2.7410    2.0930 H   0  0  0  0  0  0  0  0  0  0  0  0
   -0.3280   -3.3120    3.8090 H   0  0  0  0  0  0  0  0  0  0  0  0
    1.1080   -1.4470    4.2810 H   0  0  0  0  0  0  0  0  0  0  0  0
   -0.4980   -1.1190    4.9600 H   0  0  0  0  0  0  0  0  0  0  0  0
   -0.2680   -3.4380   -7.3380 H   0  0  0  0  0  0  0  0  0  0  0  0
   -2.4610   -3.1740    2.6020 H   0  0  0  0  0  0  0  0  0  0  0  0
   -2.5280   -2.2760    4.1230 H   0  0  0  0  0  0  0  0  0  0  0  0
   -2.3970   -1.4070    2.5890 H   0  0  0  0  0  0  0  0  0  0  0  0
    1.1230   -4.4580   -1.0580 H   0  0  0  0  0  0  0  0  0  0  0  0
    1.5010   -3.6020    0.3620 H   0  0  0  0  0  0  0  0  0  0  0  0
   -0.7150    1.4080    5.9320 H   0  0  0  0  0  0  0  0  0  0  0  0
    0.8840    2.1840    5.7300 H   0  0  0  0  0  0  0  0  0  0  0  0
    0.7870    0.4600    5.8000 H   0  0  0  0  0  0  0  0  0  0  0  0
  1  2  2  0
  1  6  1  0
  1 44  1  0
  2  3  1  0
  2  7  1  0
  3  4  2  0
  3 45  1  0
  4  5  1  0
  5  6  2  0
  5 46  1  0
  6 47  1  0
  7 42  1  0
  8  9  1  0
  8 12  1  0
  8 18  2  0
  9 13  1  0
  9 21  2  0
 10 11  1  0
 10 14  2  0
 10 22  1  0
 11 15  2  0
 11 25  1  0
 12 16  2  0
 12 31  1  0
 13 17  2  0
 13 36  1  0
 14 16  1  0
 14 33  1  0
 15 17  1  0
 15 42  1  0
 16 17  1  0
 18 19  1  0
 18 26  1  0
 19 20  2  0
 19 29  1  0
 20 21  1  0
 20 43  1  0
 21 38  1  0
 22 23  2  0
 22 34  1  0
 23 24  1  0
 23 39  1  0
 24 25  2  0
 24 48  1  0
 25 49  1  0
 26 27  2  0
 26 30  1  0
 27 28  1  0
 27 50  1  0
 28 29  2  0
 28 51  1  0
 29 52  1  0
 30 31  2  0
 30 53  1  0
 31 32  1  0
 32 33  2  0
 32 54  1  0
 33 35  1  0
 34 35  2  0
 34 55  1  0
 35 56  1  0
 36 37  1  0
 36 57  1  0
 36 58  1  0
 37 38  1  0
 37 41  1  0
 37 59  1  1
 38 60  1  0
 38 61  1  0
 39 40  2  0
 39 62  1  0
 41 63  1  0
 41 64  1  0
 41 65  1  0
 42 66  1  0
 42 67  1  0
 43 68  1  0
 43 69  1  0
 43 70  1  0
M  END
