
     RDKit          3D

 81 88  0  0  0  0  0  0  0  0999 V2000
   -0.4050    6.1890   -2.1650 C   0  0  0  0  0  0  0  0  0  0  0  0
   -0.2730    4.9860   -1.4590 C   0  0  0  0  0  0  0  0  0  0  0  0
    0.8050    4.1400   -1.7180 C   0  0  0  0  0  0  0  0  0  0  0  0
    1.7530    4.5150   -2.6730 C   0  0  0  0  0  0  0  0  0  0  0  0
    1.6220    5.7150   -3.3780 C   0  0  0  0  0  0  0  0  0  0  0  0
    0.5350    6.5540   -3.1320 C   0  0  0  0  0  0  0  0  0  0  0  0
    0.3480    8.0900   -4.0100 S   0  0  0  0  0  0  0  0  0  0  0  0
    1.0510    2.9400   -1.1150 O   0  0  0  0  0  0  0  0  0  0  0  0
   -1.8650   -0.3510    2.9530 C   0  0  0  0  0  0  0  0  0  0  0  0
   -0.7440    0.2550    2.3260 C   0  0  0  0  0  0  0  0  0  0  0  0
    0.6940    0.5860    6.7150 C   0  0  0  0  0  0  0  0  0  0  0  0
   -1.8810   -0.5290    4.3660 C   0  0  0  0  0  0  0  0  0  0  0  0
    0.3450    0.7270    3.1010 C   0  0  0  0  0  0  0  0  0  0  0  0
   -0.5160   -0.0400    6.5350 C   0  0  0  0  0  0  0  0  0  0  0  0
    1.1560    0.9530    5.4800 N   0  0  0  0  0  0  0  0  0  0  0  0
   -0.8100   -0.0340    5.1400 C   0  0  0  0  0  0  0  0  0  0  0  0
    0.2610    0.5810    4.4980 C   0  0  0  0  0  0  0  0  0  0  0  0
   -2.9580   -0.8060    2.1660 C   0  0  0  0  0  0  0  0  0  0  0  0
   -2.8920   -0.7470    0.7580 C   0  0  0  0  0  0  0  0  0  0  0  0
   -1.7730   -0.1760    0.1530 C   0  0  0  0  0  0  0  0  0  0  0  0
   -0.7160    0.3450    0.9180 C   0  0  0  0  0  0  0  0  0  0  0  0
   -4.1440   -1.3050    2.7550 C   0  0  0  0  0  0  0  0  0  0  0  0
   -5.2000   -1.7790    1.9660 C   0  0  0  0  0  0  0  0  0  0  0  0
   -5.0940   -1.7650    0.5800 C   0  0  0  0  0  0  0  0  0  0  0  0
   -3.9530   -1.2410   -0.0200 C   0  0  0  0  0  0  0  0  0  0  0  0
   -2.9860   -1.3640    4.9770 C   0  0  0  0  0  0  0  0  0  0  0  0
   -4.3150   -1.2070    4.2510 C   0  0  0  0  0  0  0  0  0  0  0  0
    1.5450    1.3630    2.4490 C   0  0  0  0  0  0  0  0  0  0  0  0
    1.7640    0.9530    0.9890 C   0  0  2  0  0  0  0  0  0  0  0  0
    0.4440    0.9940    0.1830 C   0  0  2  0  0  0  0  0  0  0  0  0
    2.5550   -0.3710    0.8200 C   0  0  0  0  0  0  0  0  0  0  0  0
    0.0550    2.4370   -0.2170 C   0  0  0  0  0  0  0  0  0  0  0  0
    1.9550   -2.8150   -5.1520 C   0  0  0  0  0  0  0  0  0  0  0  0
    1.4450   -3.1080   -3.8790 C   0  0  0  0  0  0  0  0  0  0  0  0
    0.0620   -3.0570   -3.6600 C   0  0  0  0  0  0  0  0  0  0  0  0
   -0.7970   -2.6990   -4.7020 C   0  0  0  0  0  0  0  0  0  0  0  0
   -0.2830   -2.3940   -5.9630 C   0  0  0  0  0  0  0  0  0  0  0  0
    1.0920   -2.4570   -6.1900 C   0  0  0  0  0  0  0  0  0  0  0  0
    2.4060   -3.4630   -2.7940 C   0  0  0  0  0  0  0  0  0  0  0  0
    3.5230   -3.8790   -3.0920 O   0  0  0  0  0  0  0  0  0  0  0  0
    1.9560   -3.2860   -1.3510 C   0  0  0  0  0  0  0  0  0  0  0  0
    3.1490   -3.1730   -0.3990 C   0  0  0  0  0  0  0  0  0  0  0  0
    2.7520   -2.9140    1.0600 C   0  0  0  0  0  0  0  0  0  0  0  0
    1.8970   -1.6630    1.3090 C   0  0  0  0  0  0  0  0  0  0  0  0
   -1.2520    6.8380   -1.9510 H   0  0  0  0  0  0  0  0  0  0  0  0
   -1.0280    4.7450   -0.7170 H   0  0  0  0  0  0  0  0  0  0  0  0
    2.5990    3.8620   -2.8760 H   0  0  0  0  0  0  0  0  0  0  0  0
    2.3780    5.9790   -4.1140 H   0  0  0  0  0  0  0  0  0  0  0  0
    1.0350    7.7370   -5.1070 H   0  0  0  0  0  0  0  0  0  0  0  0
    1.2700    0.7860    7.6080 H   0  0  0  0  0  0  0  0  0  0  0  0
   -1.1260   -0.4570    7.3240 H   0  0  0  0  0  0  0  0  0  0  0  0
    2.0380    1.4170    5.3070 H   0  0  0  0  0  0  0  0  0  0  0  0
   -1.7230   -0.1170   -0.9340 H   0  0  0  0  0  0  0  0  0  0  0  0
   -6.1120   -2.1490    2.4300 H   0  0  0  0  0  0  0  0  0  0  0  0
   -5.9100   -2.1360   -0.0330 H   0  0  0  0  0  0  0  0  0  0  0  0
   -3.9000   -1.2120   -1.1080 H   0  0  0  0  0  0  0  0  0  0  0  0
   -3.1260   -1.1170    6.0340 H   0  0  0  0  0  0  0  0  0  0  0  0
   -2.6640   -2.4130    4.9290 H   0  0  0  0  0  0  0  0  0  0  0  0
   -5.0110   -1.9740    4.6120 H   0  0  0  0  0  0  0  0  0  0  0  0
   -4.7560   -0.2260    4.4770 H   0  0  0  0  0  0  0  0  0  0  0  0
    2.4520    1.1390    3.0240 H   0  0  0  0  0  0  0  0  0  0  0  0
    1.4070    2.4510    2.5020 H   0  0  0  0  0  0  0  0  0  0  0  0
    2.4430    1.7050    0.5630 H   0  0  0  0  0  0  0  0  0  0  0  0
    0.6250    0.4360   -0.7470 H   0  0  0  0  0  0  0  0  0  0  0  0
    3.5240   -0.2610    1.3240 H   0  0  0  0  0  0  0  0  0  0  0  0
    2.7850   -0.4660   -0.2470 H   0  0  0  0  0  0  0  0  0  0  0  0
   -0.0090    3.0810    0.6690 H   0  0  0  0  0  0  0  0  0  0  0  0
   -0.9190    2.4250   -0.7230 H   0  0  0  0  0  0  0  0  0  0  0  0
    3.0270   -2.8570   -5.3360 H   0  0  0  0  0  0  0  0  0  0  0  0
   -0.3690   -3.3050   -2.6940 H   0  0  0  0  0  0  0  0  0  0  0  0
   -1.8720   -2.6620   -4.5330 H   0  0  0  0  0  0  0  0  0  0  0  0
   -0.9530   -2.1140   -6.7730 H   0  0  0  0  0  0  0  0  0  0  0  0
    1.4940   -2.2230   -7.1740 H   0  0  0  0  0  0  0  0  0  0  0  0
    1.3390   -4.1470   -1.0750 H   0  0  0  0  0  0  0  0  0  0  0  0
    1.3510   -2.3750   -1.2900 H   0  0  0  0  0  0  0  0  0  0  0  0
    3.8260   -2.3820   -0.7460 H   0  0  0  0  0  0  0  0  0  0  0  0
    3.7350   -4.1030   -0.4370 H   0  0  0  0  0  0  0  0  0  0  0  0
    3.6670   -2.8420    1.6610 H   0  0  0  0  0  0  0  0  0  0  0  0
    2.2020   -3.7850    1.4360 H   0  0  0  0  0  0  0  0  0  0  0  0
    1.7160   -1.6000    2.3880 H   0  0  0  0  0  0  0  0  0  0  0  0
    0.9240   -1.8040    0.8310 H   0  0  0  0  0  0  0  0  0  0  0  0
  1  2  2  0
  1  6  1  0
  1 45  1  0
  2  3  1  0
  2 46  1  0
  3  4  2  0
  3  8  1  0
  4  5  1  0
  4 47  1  0
  5  6  2  0
  5 48  1  0
  6  7  1  0
  7 49  1  0
  8 32  1  0
  9 10  2  0
  9 12  1  0
  9 18  1  0
 10 13  1  0
 10 21  1  0
 11 14  2  0
 11 15  1  0
 11 50  1  0
 12 16  2  0
 12 26  1  0
 13 17  2  0
 13 28  1  0
 14 16  1  0
 14 51  1  0
 15 17  1  0
 15 52  1  0
 16 17  1  0
 18 19  2  0
 18 22  1  0
 19 20  1  0
 19 25  1  0
 20 21  2  0
 20 53  1  0
 21 30  1  0
 22 23  2  0
 22 27  1  0
 23 24  1  0
 23 54  1  0
 24 25  2  0
 24 55  1  0
 25 56  1  0
 26 27  1  0
 26 57  1  0
 26 58  1  0
 27 59  1  0
 27 60  1  0
 28 29  1  0
 28 61  1  0
 28 62  1  0
 29 30  1  0
 29 31  1  0
 29 63  1  6
 30 32  1  0
 30 64  1  6
 31 44  1  0
 31 65  1  0
 31 66  1  0
 32 67  1  0
 32 68  1  0
 33 34  2  0
 33 38  1  0
 33 69  1  0
 34 35  1  0
 34 39  1  0
 35 36  2  0
 35 70  1  0
 36 37  1  0
 36 71  1  0
 37 38  2  0
 37 72  1  0
 38 73  1  0
 39 40  2  0
 39 41  1  0
 41 42  1  0
 41 74  1  0
 41 75  1  0
 42 43  1  0
 42 76  1  0
 42 77  1  0
 43 44  1  0
 43 78  1  0
 43 79  1  0
 44 80  1  0
 44 81  1  0
M  END
