
     RDKit          3D

 91102  0  0  0  0  0  0  0  0999 V2000
    5.4000   -1.4040   -2.0440 C   0  0  0  0  0  0  0  0  0  0  0  0
    5.4240   -0.8040   -0.7440 C   0  0  0  0  0  0  0  0  0  0  0  0
    3.5400   -4.9720    0.3160 C   0  0  0  0  0  0  0  0  0  0  0  0
    4.9410   -2.7360   -2.1680 C   0  0  0  0  0  0  0  0  0  0  0  0
    4.9760   -1.5390    0.3990 C   0  0  0  0  0  0  0  0  0  0  0  0
    3.9320   -4.7800   -0.9550 C   0  0  0  0  0  0  0  0  0  0  0  0
    3.7790   -3.7540    1.1810 C   0  0  1  0  0  0  0  0  0  0  0  0
    4.4580   -3.4230   -1.0660 C   0  0  0  0  0  0  0  0  0  0  0  0
    4.4110   -2.8040    0.1930 C   0  0  0  0  0  0  0  0  0  0  0  0
    5.8240   -0.6790   -3.1850 C   0  0  0  0  0  0  0  0  0  0  0  0
    6.2580    0.6440   -3.0130 C   0  0  0  0  0  0  0  0  0  0  0  0
    6.3020    1.2430   -1.7510 C   0  0  0  0  0  0  0  0  0  0  0  0
    5.8950    0.5200   -0.6370 C   0  0  0  0  0  0  0  0  0  0  0  0
    5.8200   -1.2310   -4.4170 N   0  0  0  0  0  0  0  0  0  0  0  0
    6.1790   -0.4620   -5.4380 C   0  0  0  0  0  0  0  0  0  0  0  0
    6.5970    0.8030   -5.4060 N   0  0  0  0  0  0  0  0  0  0  0  0
    6.6280    1.3280   -4.1680 C   0  0  0  0  0  0  0  0  0  0  0  0
    3.8550   -5.8310   -1.9840 C   0  0  0  0  0  0  0  0  0  0  0  0
    4.2880   -5.7090   -3.1250 O   0  0  0  0  0  0  0  0  0  0  0  0
    6.1380   -0.9980   -6.6890 O   0  0  0  0  0  0  0  0  0  0  0  0
    2.5250   -3.2400    1.9460 C   0  0  0  0  0  0  0  0  0  0  0  0
    5.1230   -0.9730    1.7940 C   0  0  0  0  0  0  0  0  0  0  0  0
   -4.1690    2.7870   -0.1190 C   0  0  0  0  0  0  0  0  0  0  0  0
   -4.1300    3.1680   -1.4740 C   0  0  0  0  0  0  0  0  0  0  0  0
   -0.7650   -0.6320   -1.0170 C   0  0  0  0  0  0  0  0  0  0  0  0
   -0.7870   -0.2580   -2.3830 C   0  0  0  0  0  0  0  0  0  0  0  0
   -3.3760    1.6980    0.3200 C   0  0  0  0  0  0  0  0  0  0  0  0
   -3.3050    2.4770   -2.3700 C   0  0  0  0  0  0  0  0  0  0  0  0
   -1.6920   -0.0370   -0.1300 C   0  0  0  0  0  0  0  0  0  0  0  0
   -1.6600    0.7510   -2.8340 C   0  0  0  0  0  0  0  0  0  0  0  0
   -2.5240    1.0230   -0.5830 C   0  0  0  0  0  0  0  0  0  0  0  0
   -2.4970    1.4200   -1.9360 C   0  0  0  0  0  0  0  0  0  0  0  0
   -4.9910    3.4960    0.7970 C   0  0  0  0  0  0  0  0  0  0  0  0
   -5.7720    4.6020    0.3640 C   0  0  0  0  0  0  0  0  0  0  0  0
   -5.7150    4.9500   -1.0010 C   0  0  0  0  0  0  0  0  0  0  0  0
   -4.9140    4.2420   -1.9020 C   0  0  0  0  0  0  0  0  0  0  0  0
    0.2110   -1.5620   -0.5680 C   0  0  0  0  0  0  0  0  0  0  0  0
    1.0500   -2.1120   -1.5440 C   0  0  0  0  0  0  0  0  0  0  0  0
    0.9780   -1.8490   -2.8660 N   0  0  0  0  0  0  0  0  0  0  0  0
    0.0870   -0.9100   -3.2540 C   0  0  0  0  0  0  0  0  0  0  0  0
   -5.0230    3.0820    2.1510 C   0  0  0  0  0  0  0  0  0  0  0  0
   -5.8300    3.7810    3.0600 C   0  0  0  0  0  0  0  0  0  0  0  0
   -6.5870    4.8780    2.6430 C   0  0  0  0  0  0  0  0  0  0  0  0
   -6.5680    5.3010    1.3100 C   0  0  0  0  0  0  0  0  0  0  0  0
   -4.2490    1.9820    2.5710 C   0  0  0  0  0  0  0  0  0  0  0  0
   -3.4250    1.2890    1.6680 C   0  0  0  0  0  0  0  0  0  0  0  0
   -2.6690    0.1840    2.0850 C   0  0  0  0  0  0  0  0  0  0  0  0
   -1.8100   -0.4960    1.1990 C   0  0  0  0  0  0  0  0  0  0  0  0
    0.4160   -1.8000    0.9620 C   0  0  2  0  0  0  0  0  0  0  0  0
   -1.0530   -1.7830    1.5800 C   0  0  1  0  0  0  0  0  0  0  0  0
    1.2800   -0.6040    1.4760 C   0  0  0  0  0  0  0  0  0  0  0  0
    2.1080   -0.0400    0.7620 O   0  0  0  0  0  0  0  0  0  0  0  0
    1.1580   -0.1550    2.9120 C   0  0  0  0  0  0  0  0  0  0  0  0
    1.1320   -3.1950    1.2540 C   0  0  0  0  0  0  0  0  0  0  0  0
   -1.2300   -2.1740    3.0700 C   0  0  0  0  0  0  0  0  0  0  0  0
   -7.3960    6.4860    0.9240 C   0  0  0  0  0  0  0  0  0  0  0  0
    3.1600   -5.8990    0.7090 H   0  0  0  0  0  0  0  0  0  0  0  0
    4.9440   -3.2320   -3.1390 H   0  0  0  0  0  0  0  0  0  0  0  0
    4.5520   -4.0250    1.9110 H   0  0  0  0  0  0  0  0  0  0  0  0
    6.6490    2.2690   -1.6180 H   0  0  0  0  0  0  0  0  0  0  0  0
    5.9440    1.0270    0.3220 H   0  0  0  0  0  0  0  0  0  0  0  0
    6.9570    2.3540   -4.1310 H   0  0  0  0  0  0  0  0  0  0  0  0
    3.3850   -6.7730   -1.6590 H   0  0  0  0  0  0  0  0  0  0  0  0
    6.3590   -0.2010   -7.1900 H   0  0  0  0  0  0  0  0  0  0  0  0
    2.7540   -2.2870    2.4290 H   0  0  0  0  0  0  0  0  0  0  0  0
    2.4130   -3.9590    2.7750 H   0  0  0  0  0  0  0  0  0  0  0  0
    6.1450   -0.6020    1.9410 H   0  0  0  0  0  0  0  0  0  0  0  0
    4.4210   -0.1410    1.9600 H   0  0  0  0  0  0  0  0  0  0  0  0
    4.9690   -1.7340    2.5700 H   0  0  0  0  0  0  0  0  0  0  0  0
   -3.2720    2.7810   -3.4130 H   0  0  0  0  0  0  0  0  0  0  0  0
   -1.6440    1.0280   -3.8880 H   0  0  0  0  0  0  0  0  0  0  0  0
   -6.2880    5.7860   -1.3840 H   0  0  0  0  0  0  0  0  0  0  0  0
   -4.8990    4.5580   -2.9420 H   0  0  0  0  0  0  0  0  0  0  0  0
    1.8390   -2.8110   -1.3030 H   0  0  0  0  0  0  0  0  0  0  0  0
    0.0950   -0.7000   -4.3170 H   0  0  0  0  0  0  0  0  0  0  0  0
   -5.8730    3.4890    4.1090 H   0  0  0  0  0  0  0  0  0  0  0  0
   -7.1940    5.4070    3.3750 H   0  0  0  0  0  0  0  0  0  0  0  0
   -4.2870    1.6770    3.6220 H   0  0  0  0  0  0  0  0  0  0  0  0
   -2.7960   -0.1410    3.1140 H   0  0  0  0  0  0  0  0  0  0  0  0
   -1.5980   -2.5780    1.0450 H   0  0  0  0  0  0  0  0  0  0  0  0
    1.2170   -1.0110    3.5920 H   0  0  0  0  0  0  0  0  0  0  0  0
    2.0030    0.5130    3.1520 H   0  0  0  0  0  0  0  0  0  0  0  0
    0.2370    0.4100    3.0500 H   0  0  0  0  0  0  0  0  0  0  0  0
    1.0990   -3.8640    0.3860 H   0  0  0  0  0  0  0  0  0  0  0  0
    0.4860   -3.7590    1.9410 H   0  0  0  0  0  0  0  0  0  0  0  0
   -0.6850   -3.0720    3.3760 H   0  0  0  0  0  0  0  0  0  0  0  0
   -0.9620   -1.3790    3.7710 H   0  0  0  0  0  0  0  0  0  0  0  0
   -2.2930   -2.3960    3.2560 H   0  0  0  0  0  0  0  0  0  0  0  0
   -7.8810    6.9320    1.8060 H   0  0  0  0  0  0  0  0  0  0  0  0
   -6.7540    7.2480    0.4820 H   0  0  0  0  0  0  0  0  0  0  0  0
   -8.1850    6.2090    0.2140 H   0  0  0  0  0  0  0  0  0  0  0  0
  1  2  2  0
  1  4  1  0
  1 10  1  0
  2  5  1  0
  2 13  1  0
  3  6  2  0
  3  7  1  0
  3 57  1  0
  4  8  2  0
  4 58  1  0
  5  9  2  0
  5 22  1  0
  6  8  1  0
  6 18  1  0
  7  9  1  0
  7 21  1  0
  7 59  1  1
  8  9  1  0
 10 11  2  0
 10 14  1  0
 11 12  1  0
 11 17  1  0
 12 13  2  0
 12 60  1  0
 13 61  1  0
 14 15  2  0
 15 16  1  0
 15 20  1  0
 16 17  2  0
 17 62  1  0
 18 19  2  0
 18 63  1  0
 20 64  1  0
 21 54  1  0
 21 65  1  0
 21 66  1  0
 22 67  1  0
 22 68  1  0
 22 69  1  0
 23 24  1  0
 23 27  2  0
 23 33  1  0
 24 28  2  0
 24 36  1  0
 25 26  2  0
 25 29  1  0
 25 37  1  0
 26 30  1  0
 26 40  1  0
 27 31  1  0
 27 46  1  0
 28 32  1  0
 28 70  1  0
 29 31  2  0
 29 48  1  0
 30 32  2  0
 30 71  1  0
 31 32  1  0
 33 34  2  0
 33 41  1  0
 34 35  1  0
 34 44  1  0
 35 36  2  0
 35 72  1  0
 36 73  1  0
 37 38  2  0
 37 49  1  0
 38 39  1  0
 38 74  1  0
 39 40  2  0
 40 75  1  0
 41 42  2  0
 41 45  1  0
 42 43  1  0
 42 76  1  0
 43 44  2  0
 43 77  1  0
 44 56  1  0
 45 46  2  0
 45 78  1  0
 46 47  1  0
 47 48  2  0
 47 79  1  0
 48 50  1  0
 49 50  1  0
 49 51  1  0
 49 54  1  6
 50 55  1  0
 50 80  1  6
 51 52  2  0
 51 53  1  0
 53 81  1  0
 53 82  1  0
 53 83  1  0
 54 84  1  0
 54 85  1  0
 55 86  1  0
 55 87  1  0
 55 88  1  0
 56 89  1  0
 56 90  1  0
 56 91  1  0
M  END
