
     RDKit          3D

121133  0  0  0  0  0  0  0  0999 V2000
    0.7470    2.9300    5.7170 C   0  0  0  0  0  0  0  0  0  0  0  0
    1.8060    3.8480    5.7030 C   0  0  0  0  0  0  0  0  0  0  0  0
    3.0620    3.5210    6.2430 C   0  0  0  0  0  0  0  0  0  0  0  0
    3.2250    2.2310    6.7950 C   0  0  0  0  0  0  0  0  0  0  0  0
    2.1370    1.3300    6.8350 C   0  0  0  0  0  0  0  0  0  0  0  0
    0.9090    1.6760    6.2830 C   0  0  0  0  0  0  0  0  0  0  0  0
    4.1500    4.5600    6.3070 C   0  0  0  0  0  0  0  0  0  0  0  0
    5.1910    4.3120    6.9130 O   0  0  0  0  0  0  0  0  0  0  0  0
    3.9710    5.9470    5.7120 C   0  0  0  0  0  0  0  0  0  0  0  0
    4.5060    1.6950    7.3260 C   0  0  0  0  0  0  0  0  0  0  0  0
    4.5270    0.6950    8.0400 O   0  0  0  0  0  0  0  0  0  0  0  0
   -0.2010    0.8850    6.2830 O   0  0  0  0  0  0  0  0  0  0  0  0
    5.1350    6.3310    4.8040 C   0  0  0  0  0  0  0  0  0  0  0  0
    3.0190   10.3220    1.4490 N   0  0  0  0  0  0  0  0  0  0  0  0
    4.2210    9.8760    1.8510 C   0  0  0  0  0  0  0  0  0  0  0  0
    1.2840    5.7960    1.8180 C   0  0  0  0  0  0  0  0  0  0  0  0
    2.5140    5.3380    2.2830 C   0  0  0  0  0  0  0  0  0  0  0  0
    2.0360    9.4000    1.3610 C   0  0  0  0  0  0  0  0  0  0  0  0
    4.4800    8.5580    2.1910 C   0  0  0  0  0  0  0  0  0  0  0  0
    1.1130    7.1450    1.5300 C   0  0  0  0  0  0  0  0  0  0  0  0
    3.5860    6.2250    2.4710 C   0  0  0  0  0  0  0  0  0  0  0  0
    2.1830    8.0450    1.6710 C   0  0  0  0  0  0  0  0  0  0  0  0
    3.4450    7.5980    2.1270 C   0  0  0  0  0  0  0  0  0  0  0  0
    5.0820    5.5040    3.1660 S   0  0  0  0  0  0  0  0  0  0  0  0
   -2.4050   -3.1390    1.1250 C   0  0  0  0  0  0  0  0  0  0  0  0
   -2.9030   -1.8260    0.8260 C   0  0  0  0  0  0  0  0  0  0  0  0
   -0.8180   -1.0220    4.9650 C   0  0  0  0  0  0  0  0  0  0  0  0
   -1.7370   -3.3960    2.3570 C   0  0  0  0  0  0  0  0  0  0  0  0
   -2.6830   -0.8170    1.7940 C   0  0  0  0  0  0  0  0  0  0  0  0
   -0.7930   -2.2900    4.5110 C   0  0  0  0  0  0  0  0  0  0  0  0
   -1.6500   -0.1160    4.0760 C   0  0  1  0  0  0  0  0  0  0  0  0
   -1.5350   -2.3500    3.2560 C   0  0  0  0  0  0  0  0  0  0  0  0
   -2.0130   -1.0790    2.9760 C   0  0  0  0  0  0  0  0  0  0  0  0
   -2.5710   -4.2040    0.2010 C   0  0  0  0  0  0  0  0  0  0  0  0
   -3.1170   -3.8980   -1.0770 C   0  0  0  0  0  0  0  0  0  0  0  0
   -3.4390   -2.5470   -1.4480 C   0  0  0  0  0  0  0  0  0  0  0  0
   -3.5200   -1.5490   -0.4500 C   0  0  0  0  0  0  0  0  0  0  0  0
   -2.1750   -5.5500    0.5380 C   0  0  0  0  0  0  0  0  0  0  0  0
   -2.5170   -6.5740   -0.3900 C   0  0  0  0  0  0  0  0  0  0  0  0
   -3.0860   -6.2820   -1.6240 C   0  0  0  0  0  0  0  0  0  0  0  0
   -3.3660   -4.9680   -1.9560 C   0  0  0  0  0  0  0  0  0  0  0  0
   -1.4460   -5.7460    1.7480 C   0  0  0  0  0  0  0  0  0  0  0  0
   -1.2610   -4.6780    2.6330 C   0  0  0  0  0  0  0  0  0  0  0  0
   -3.6640   -2.1220   -2.7960 C   0  0  0  0  0  0  0  0  0  0  0  0
   -4.2790   -0.9180   -3.1360 C   0  0  0  0  0  0  0  0  0  0  0  0
   -4.5890   -0.0330   -2.1310 C   0  0  0  0  0  0  0  0  0  0  0  0
   -4.1850   -0.3260   -0.8250 C   0  0  0  0  0  0  0  0  0  0  0  0
   -2.4230   -8.0190   -0.0980 C   0  0  0  0  0  0  0  0  0  0  0  0
   -2.1460   -8.8400   -0.9660 O   0  0  0  0  0  0  0  0  0  0  0  0
   -4.4890    0.6150    0.1250 O   0  0  0  0  0  0  0  0  0  0  0  0
   -3.1410   -2.8400   -3.8600 O   0  0  0  0  0  0  0  0  0  0  0  0
    0.0010   -0.5210    6.1120 C   0  0  0  0  0  0  0  0  0  0  0  0
   -2.8970    0.4400    4.7590 C   0  0  0  0  0  0  0  0  0  0  0  0
   -0.7980   -7.0460    2.1680 C   0  0  0  0  0  0  0  0  0  0  0  0
    0.0700   -1.2200   -7.3120 C   0  0  0  0  0  0  0  0  0  0  0  0
    1.3610   -0.6810   -7.5250 C   0  0  0  0  0  0  0  0  0  0  0  0
    1.8290   -2.7640   -3.1670 C   0  0  0  0  0  0  0  0  0  0  0  0
   -0.2360   -1.8490   -6.0860 C   0  0  0  0  0  0  0  0  0  0  0  0
    2.3880   -0.8780   -6.5540 C   0  0  0  0  0  0  0  0  0  0  0  0
    0.6440   -2.7110   -3.8720 C   0  0  0  0  0  0  0  0  0  0  0  0
    3.0940   -2.0120   -4.0300 S   0  0  0  0  0  0  0  0  0  0  0  0
    0.8020   -2.0650   -5.1470 C   0  0  0  0  0  0  0  0  0  0  0  0
    2.0880   -1.5970   -5.3760 C   0  0  0  0  0  0  0  0  0  0  0  0
   -1.6240   -2.3440   -5.7130 C   0  0  0  0  0  0  0  0  0  0  0  0
   -1.8160   -2.3420   -4.1690 C   0  0  2  0  0  0  0  0  0  0  0  0
   -0.7190   -3.1910   -3.4730 C   0  0  0  0  0  0  0  0  0  0  0  0
   -1.0140   -1.0940   -8.3600 C   0  0  0  0  0  0  0  0  0  0  0  0
   -0.4790   -0.8090   -9.7580 C   0  0  0  0  0  0  0  0  0  0  0  0
    0.4640    0.3750   -9.7000 C   0  0  0  0  0  0  0  0  0  0  0  0
    1.6680    0.0650   -8.8160 C   0  0  0  0  0  0  0  0  0  0  0  0
    2.0850   -3.3400   -1.8630 C   0  0  0  0  0  0  0  0  0  0  0  0
    3.1690   -3.3760   -1.2850 O   0  0  0  0  0  0  0  0  0  0  0  0
    3.7670   -0.3440   -6.7130 C   0  0  0  0  0  0  0  0  0  0  0  0
    4.0270    0.6490   -7.3730 O   0  0  0  0  0  0  0  0  0  0  0  0
   -0.2230    3.2180    5.3120 H   0  0  0  0  0  0  0  0  0  0  0  0
    1.5840    4.8150    5.2680 H   0  0  0  0  0  0  0  0  0  0  0  0
    2.2640    0.3740    7.3350 H   0  0  0  0  0  0  0  0  0  0  0  0
    3.9540    6.6320    6.5700 H   0  0  0  0  0  0  0  0  0  0  0  0
    3.0250    6.1040    5.2040 H   0  0  0  0  0  0  0  0  0  0  0  0
    5.4500    2.1710    7.0320 H   0  0  0  0  0  0  0  0  0  0  0  0
    5.1400    7.4150    4.6630 H   0  0  0  0  0  0  0  0  0  0  0  0
    6.0940    6.0690    5.2650 H   0  0  0  0  0  0  0  0  0  0  0  0
    5.0040   10.6290    1.8970 H   0  0  0  0  0  0  0  0  0  0  0  0
    0.4610    5.0990    1.6800 H   0  0  0  0  0  0  0  0  0  0  0  0
    2.6300    4.2780    2.5020 H   0  0  0  0  0  0  0  0  0  0  0  0
    1.0840    9.7950    1.0140 H   0  0  0  0  0  0  0  0  0  0  0  0
    5.4900    8.2920    2.4850 H   0  0  0  0  0  0  0  0  0  0  0  0
    0.1450    7.4910    1.1730 H   0  0  0  0  0  0  0  0  0  0  0  0
   -2.9740    0.2140    1.6240 H   0  0  0  0  0  0  0  0  0  0  0  0
   -0.2390   -3.1120    4.9390 H   0  0  0  0  0  0  0  0  0  0  0  0
   -1.0260    0.6890    3.6670 H   0  0  0  0  0  0  0  0  0  0  0  0
   -3.3490   -7.0780   -2.3200 H   0  0  0  0  0  0  0  0  0  0  0  0
   -3.8570   -4.8080   -2.9130 H   0  0  0  0  0  0  0  0  0  0  0  0
   -0.7230   -4.8610    3.5590 H   0  0  0  0  0  0  0  0  0  0  0  0
   -4.4830   -0.6720   -4.1720 H   0  0  0  0  0  0  0  0  0  0  0  0
   -5.0750    0.9050   -2.3780 H   0  0  0  0  0  0  0  0  0  0  0  0
   -2.6520   -8.3350    0.9300 H   0  0  0  0  0  0  0  0  0  0  0  0
   -5.1340    1.2460   -0.2320 H   0  0  0  0  0  0  0  0  0  0  0  0
   -0.3010   -1.0200    7.0390 H   0  0  0  0  0  0  0  0  0  0  0  0
    1.0490   -0.7720    5.9020 H   0  0  0  0  0  0  0  0  0  0  0  0
   -3.5350   -0.3590    5.1600 H   0  0  0  0  0  0  0  0  0  0  0  0
   -3.5010    1.0190    4.0540 H   0  0  0  0  0  0  0  0  0  0  0  0
   -2.6400    1.1020    5.5900 H   0  0  0  0  0  0  0  0  0  0  0  0
    0.0120   -6.8710    2.8870 H   0  0  0  0  0  0  0  0  0  0  0  0
   -1.5300   -7.6970    2.6550 H   0  0  0  0  0  0  0  0  0  0  0  0
   -0.3290   -7.5500    1.3190 H   0  0  0  0  0  0  0  0  0  0  0  0
   -2.4010   -1.7060   -6.1520 H   0  0  0  0  0  0  0  0  0  0  0  0
   -1.7720   -3.3550   -6.1140 H   0  0  0  0  0  0  0  0  0  0  0  0
   -1.7040   -1.2960   -3.8400 H   0  0  0  0  0  0  0  0  0  0  0  0
   -0.8380   -4.2490   -3.7310 H   0  0  0  0  0  0  0  0  0  0  0  0
   -0.8240   -3.1130   -2.3880 H   0  0  0  0  0  0  0  0  0  0  0  0
   -1.6940   -0.2850   -8.0590 H   0  0  0  0  0  0  0  0  0  0  0  0
   -1.5990   -2.0210   -8.4140 H   0  0  0  0  0  0  0  0  0  0  0  0
    0.0480   -1.6870  -10.1510 H   0  0  0  0  0  0  0  0  0  0  0  0
   -1.3110   -0.5970  -10.4390 H   0  0  0  0  0  0  0  0  0  0  0  0
    0.8040    0.6410  -10.7060 H   0  0  0  0  0  0  0  0  0  0  0  0
   -0.0650    1.2480   -9.3020 H   0  0  0  0  0  0  0  0  0  0  0  0
    2.3870   -0.5340   -9.3900 H   0  0  0  0  0  0  0  0  0  0  0  0
    2.1260    1.0320   -8.5890 H   0  0  0  0  0  0  0  0  0  0  0  0
    1.2050   -3.7930   -1.3720 H   0  0  0  0  0  0  0  0  0  0  0  0
    4.5630   -0.8490   -6.1390 H   0  0  0  0  0  0  0  0  0  0  0  0
  1  2  2  0
  1  6  1  0
  1 75  1  0
  2  3  1  0
  2 76  1  0
  3  4  2  0
  3  7  1  0
  4  5  1  0
  4 10  1  0
  5  6  2  0
  5 77  1  0
  6 12  1  0
  7  8  2  0
  7  9  1  0
  9 13  1  0
  9 78  1  0
  9 79  1  0
 10 11  2  0
 10 80  1  0
 12 52  1  0
 13 24  1  0
 13 81  1  0
 13 82  1  0
 14 15  2  0
 14 18  1  0
 15 19  1  0
 15 83  1  0
 16 17  1  0
 16 20  2  0
 16 84  1  0
 17 21  2  0
 17 85  1  0
 18 22  2  0
 18 86  1  0
 19 23  2  0
 19 87  1  0
 20 22  1  0
 20 88  1  0
 21 23  1  0
 21 24  1  0
 22 23  1  0
 25 26  1  0
 25 28  2  0
 25 34  1  0
 26 29  2  0
 26 37  1  0
 27 30  2  0
 27 31  1  0
 27 52  1  0
 28 32  1  0
 28 43  1  0
 29 33  1  0
 29 89  1  0
 30 32  1  0
 30 90  1  0
 31 33  1  0
 31 53  1  0
 31 91  1  6
 32 33  2  0
 34 35  2  0
 34 38  1  0
 35 36  1  0
 35 41  1  0
 36 37  2  0
 36 44  1  0
 37 47  1  0
 38 39  2  0
 38 42  1  0
 39 40  1  0
 39 48  1  0
 40 41  2  0
 40 92  1  0
 41 93  1  0
 42 43  2  0
 42 54  1  0
 43 94  1  0
 44 45  2  0
 44 51  1  0
 45 46  1  0
 45 95  1  0
 46 47  2  0
 46 96  1  0
 47 50  1  0
 48 49  2  0
 48 97  1  0
 50 98  1  0
 51 65  1  0
 52 99  1  0
 52100  1  0
 53101  1  0
 53102  1  0
 53103  1  0
 54104  1  0
 54105  1  0
 54106  1  0
 55 56  2  0
 55 58  1  0
 55 67  1  0
 56 59  1  0
 56 70  1  0
 57 60  2  0
 57 61  1  0
 57 71  1  0
 58 62  2  0
 58 64  1  0
 59 63  2  0
 59 73  1  0
 60 62  1  0
 60 66  1  0
 61 63  1  0
 62 63  1  0
 64 65  1  0
 64107  1  0
 64108  1  0
 65 66  1  0
 65109  1  1
 66110  1  0
 66111  1  0
 67 68  1  0
 67112  1  0
 67113  1  0
 68 69  1  0
 68114  1  0
 68115  1  0
 69 70  1  0
 69116  1  0
 69117  1  0
 70118  1  0
 70119  1  0
 71 72  2  0
 71120  1  0
 73 74  2  0
 73121  1  0
M  END
