
     RDKit          3D

142156  0  0  0  0  0  0  0  0999 V2000
    1.2430    0.4460   -5.2430 C   0  0  0  0  0  0  0  0  0  0  0  0
    0.2380    0.0260   -4.3460 C   0  0  0  0  0  0  0  0  0  0  0  0
   -4.1290    2.2820  -10.1130 C   0  0  0  0  0  0  0  0  0  0  0  0
   -5.0580    1.9800   -9.1280 C   0  0  0  0  0  0  0  0  0  0  0  0
    0.9140    1.1050   -6.4740 C   0  0  0  0  0  0  0  0  0  0  0  0
   -1.1240    0.2370   -4.6800 C   0  0  0  0  0  0  0  0  0  0  0  0
   -2.7490    2.1890   -9.8610 C   0  0  0  0  0  0  0  0  0  0  0  0
   -4.6190    1.5520   -7.8800 C   0  0  0  0  0  0  0  0  0  0  0  0
   -0.9450    1.5290   -8.1730 C   0  0  0  0  0  0  0  0  0  0  0  0
   -2.8410    0.9330   -6.3430 C   0  0  0  0  0  0  0  0  0  0  0  0
   -0.4750    1.1470   -6.8800 C   0  0  0  0  0  0  0  0  0  0  0  0
   -1.4850    0.7720   -5.9560 C   0  0  0  0  0  0  0  0  0  0  0  0
   -2.2940    1.7200   -8.5770 C   0  0  0  0  0  0  0  0  0  0  0  0
   -3.2520    1.4130   -7.6010 C   0  0  0  0  0  0  0  0  0  0  0  0
    2.5970    0.2180   -4.8820 C   0  0  0  0  0  0  0  0  0  0  0  0
    2.9540   -0.4290   -3.6940 C   0  0  0  0  0  0  0  0  0  0  0  0
    1.9690   -0.8120   -2.8110 C   0  0  0  0  0  0  0  0  0  0  0  0
    0.6270   -0.5470   -3.1090 C   0  0  0  0  0  0  0  0  0  0  0  0
    2.0010    1.7420   -7.1700 N   0  0  0  0  0  0  0  0  0  0  0  0
    3.2630    1.9340   -6.5080 N   0  0  0  0  0  0  0  0  0  0  0  0
    3.6870    0.7160   -5.8030 C   0  0  2  0  0  0  0  0  0  0  0  0
   -2.1990   -0.1630   -3.6400 C   0  0  2  0  0  0  0  0  0  0  0  0
   -1.6620   -0.0170   -2.1710 C   0  0  2  0  0  0  0  0  0  0  0  0
   -0.3900   -0.8690   -2.0450 C   0  0  0  0  0  0  0  0  0  0  0  0
   -1.7950    2.6570  -10.9440 C   0  0  0  0  0  0  0  0  0  0  0  0
   -0.5780    2.5090  -10.8440 O   0  0  0  0  0  0  0  0  0  0  0  0
   -2.3680    3.3530  -12.1730 C   0  0  0  0  0  0  0  0  0  0  0  0
   -2.7730   -0.4840   -1.1870 C   0  0  0  0  0  0  0  0  0  0  0  0
   -3.8260    0.1560   -1.0810 O   0  0  0  0  0  0  0  0  0  0  0  0
   -2.5780   -1.7790   -0.4010 C   0  0  0  0  0  0  0  0  0  0  0  0
   -1.2990    4.0920  -12.9680 C   0  0  0  0  0  0  0  0  0  0  0  0
   -1.4220    1.5210   -1.9010 C   0  0  0  0  0  0  0  0  0  0  0  0
    3.1840    3.1080   -5.6280 C   0  0  0  0  0  0  0  0  0  0  0  0
    4.1260   -0.3710   -6.7930 C   0  0  0  0  0  0  0  0  0  0  0  0
    1.8840    2.4660   -8.4350 C   0  0  0  0  0  0  0  0  0  0  0  0
   -3.8180   -2.2740    0.3540 C   0  0  0  0  0  0  0  0  0  0  0  0
   -2.7140   -1.5740   -3.9780 C   0  0  0  0  0  0  0  0  0  0  0  0
    0.9150    2.2380   -1.2630 C   0  0  0  0  0  0  0  0  0  0  0  0
    1.8830    2.5970   -0.3260 C   0  0  0  0  0  0  0  0  0  0  0  0
    1.5410    2.6720    1.0230 C   0  0  0  0  0  0  0  0  0  0  0  0
    0.2460    2.3580    1.4260 C   0  0  0  0  0  0  0  0  0  0  0  0
   -0.7220    1.9750    0.4920 C   0  0  0  0  0  0  0  0  0  0  0  0
   -0.3920    1.9030   -0.8660 C   0  0  0  0  0  0  0  0  0  0  0  0
   -1.4930   -2.7940    4.0860 C   0  0  0  0  0  0  0  0  0  0  0  0
    4.1980   -3.2320    8.1260 C   0  0  0  0  0  0  0  0  0  0  0  0
   -0.9680   -1.5890    4.5700 C   0  0  0  0  0  0  0  0  0  0  0  0
   -1.0260   -3.9900    4.4700 N   0  0  0  0  0  0  0  0  0  0  0  0
    3.6630   -1.9580    7.8340 C   0  0  0  0  0  0  0  0  0  0  0  0
    3.5150   -4.3750    7.7020 C   0  0  0  0  0  0  0  0  0  0  0  0
    0.7580   -0.4780    5.9010 C   0  0  0  0  0  0  0  0  0  0  0  0
    0.4800   -5.3280    5.7410 C   0  0  0  0  0  0  0  0  0  0  0  0
    1.9600   -0.5740    6.6670 C   0  0  0  0  0  0  0  0  0  0  0  0
    1.6410   -5.4330    6.5280 C   0  0  0  0  0  0  0  0  0  0  0  0
    0.1520   -1.6620    5.4300 C   0  0  0  0  0  0  0  0  0  0  0  0
    0.0090   -4.0830    5.3220 C   0  0  0  0  0  0  0  0  0  0  0  0
    2.4820   -1.8390    7.0510 C   0  0  0  0  0  0  0  0  0  0  0  0
    2.3300   -4.2850    6.9560 C   0  0  0  0  0  0  0  0  0  0  0  0
    0.6670   -2.9260    5.7920 C   0  0  0  0  0  0  0  0  0  0  0  0
    1.8230   -3.0120    6.6090 C   0  0  0  0  0  0  0  0  0  0  0  0
   -2.5290   -2.7590    3.1610 C   0  0  0  0  0  0  0  0  0  0  0  0
   -3.0760   -1.5560    2.7060 C   0  0  0  0  0  0  0  0  0  0  0  0
   -2.6080   -0.3660    3.2660 C   0  0  0  0  0  0  0  0  0  0  0  0
   -1.5460   -0.3510    4.1950 C   0  0  0  0  0  0  0  0  0  0  0  0
   -1.0180    0.8270    4.7600 C   0  0  0  0  0  0  0  0  0  0  0  0
    0.1310    0.7450    5.5670 C   0  0  0  0  0  0  0  0  0  0  0  0
    5.4000   -3.3500    8.8450 C   0  0  0  0  0  0  0  0  0  0  0  0
    6.0720   -2.2140    9.2940 C   0  0  0  0  0  0  0  0  0  0  0  0
    5.5280   -0.9540    9.0650 C   0  0  0  0  0  0  0  0  0  0  0  0
    4.3310   -0.8220    8.3450 C   0  0  0  0  0  0  0  0  0  0  0  0
    3.6780    0.5270    8.2260 C   0  0  0  0  0  0  0  0  0  0  0  0
    2.8050    0.6720    6.9700 C   0  0  1  0  0  0  0  0  0  0  0  0
   -0.2270   -6.5930    5.3820 C   0  0  0  0  0  0  0  0  0  0  0  0
    0.4660   -7.5980    5.2050 O   0  0  0  0  0  0  0  0  0  0  0  0
   -1.7430   -6.6710    5.3290 C   0  0  0  0  0  0  0  0  0  0  0  0
    2.1360   -6.6620    6.9130 O   0  0  0  0  0  0  0  0  0  0  0  0
    3.6600    1.0260    5.7370 C   0  0  0  0  0  0  0  0  0  0  0  0
   -2.3970   -6.2460    6.6330 C   0  0  0  0  0  0  0  0  0  0  0  0
   -1.6850    2.1730    4.6100 C   0  0  0  0  0  0  0  0  0  0  0  0
   -4.1570   -1.5230    1.6520 C   0  0  0  0  0  0  0  0  0  0  0  0
   -4.5200    2.6020  -11.0720 H   0  0  0  0  0  0  0  0  0  0  0  0
   -6.1230    2.0710   -9.3260 H   0  0  0  0  0  0  0  0  0  0  0  0
   -5.3650    1.3180   -7.1200 H   0  0  0  0  0  0  0  0  0  0  0  0
   -0.2070    1.6130   -8.9500 H   0  0  0  0  0  0  0  0  0  0  0  0
   -3.6360    0.6750   -5.6490 H   0  0  0  0  0  0  0  0  0  0  0  0
    3.9970   -0.6090   -3.4530 H   0  0  0  0  0  0  0  0  0  0  0  0
    2.2460   -1.2790   -1.8690 H   0  0  0  0  0  0  0  0  0  0  0  0
    4.5660    0.9690   -5.1980 H   0  0  0  0  0  0  0  0  0  0  0  0
   -3.0410    0.5330   -3.7110 H   0  0  0  0  0  0  0  0  0  0  0  0
    0.0510   -0.7460   -1.0470 H   0  0  0  0  0  0  0  0  0  0  0  0
   -0.5970   -1.9400   -2.1420 H   0  0  0  0  0  0  0  0  0  0  0  0
   -3.1240    4.0850  -11.8640 H   0  0  0  0  0  0  0  0  0  0  0  0
   -2.8370    2.6010  -12.8200 H   0  0  0  0  0  0  0  0  0  0  0  0
   -2.3370   -2.5620   -1.1280 H   0  0  0  0  0  0  0  0  0  0  0  0
   -1.7280   -1.6570    0.2760 H   0  0  0  0  0  0  0  0  0  0  0  0
   -1.7570    4.6620  -13.7820 H   0  0  0  0  0  0  0  0  0  0  0  0
   -0.5760    3.3960  -13.4060 H   0  0  0  0  0  0  0  0  0  0  0  0
   -0.7520    4.7910  -12.3260 H   0  0  0  0  0  0  0  0  0  0  0  0
   -1.1410    2.0400   -2.8300 H   0  0  0  0  0  0  0  0  0  0  0  0
   -2.3630    2.0130   -1.6190 H   0  0  0  0  0  0  0  0  0  0  0  0
    2.9480    4.0040   -6.2150 H   0  0  0  0  0  0  0  0  0  0  0  0
    2.4250    3.0170   -4.8430 H   0  0  0  0  0  0  0  0  0  0  0  0
    4.1480    3.2930   -5.1450 H   0  0  0  0  0  0  0  0  0  0  0  0
    4.9320   -0.0020   -7.4400 H   0  0  0  0  0  0  0  0  0  0  0  0
    3.3060   -0.7070   -7.4390 H   0  0  0  0  0  0  0  0  0  0  0  0
    4.5070   -1.2520   -6.2620 H   0  0  0  0  0  0  0  0  0  0  0  0
    1.7760    1.7800   -9.2820 H   0  0  0  0  0  0  0  0  0  0  0  0
    2.8020    3.0350   -8.6390 H   0  0  0  0  0  0  0  0  0  0  0  0
    1.0940    3.2200   -8.4000 H   0  0  0  0  0  0  0  0  0  0  0  0
   -3.6770   -3.3380    0.5830 H   0  0  0  0  0  0  0  0  0  0  0  0
   -4.6900   -2.2280   -0.3090 H   0  0  0  0  0  0  0  0  0  0  0  0
   -3.5240   -1.8710   -3.3070 H   0  0  0  0  0  0  0  0  0  0  0  0
   -3.1110   -1.6230   -4.9940 H   0  0  0  0  0  0  0  0  0  0  0  0
   -1.9220   -2.3290   -3.9130 H   0  0  0  0  0  0  0  0  0  0  0  0
    1.1970    2.2080   -2.3140 H   0  0  0  0  0  0  0  0  0  0  0  0
    2.8920    2.8360   -0.6470 H   0  0  0  0  0  0  0  0  0  0  0  0
    2.2860    2.9690    1.7550 H   0  0  0  0  0  0  0  0  0  0  0  0
   -0.0200    2.4490    2.4730 H   0  0  0  0  0  0  0  0  0  0  0  0
   -1.7340    1.7570    0.8240 H   0  0  0  0  0  0  0  0  0  0  0  0
    3.9160   -5.3570    7.9490 H   0  0  0  0  0  0  0  0  0  0  0  0
   -2.9130   -3.7070    2.7850 H   0  0  0  0  0  0  0  0  0  0  0  0
   -3.0590    0.5690    2.9370 H   0  0  0  0  0  0  0  0  0  0  0  0
    0.5240    1.6840    5.9550 H   0  0  0  0  0  0  0  0  0  0  0  0
    5.8190   -4.3280    9.0630 H   0  0  0  0  0  0  0  0  0  0  0  0
    7.0060   -2.3170    9.8410 H   0  0  0  0  0  0  0  0  0  0  0  0
    6.0390   -0.0740    9.4560 H   0  0  0  0  0  0  0  0  0  0  0  0
    3.0430    0.6590    9.1120 H   0  0  0  0  0  0  0  0  0  0  0  0
    4.4300    1.3260    8.2540 H   0  0  0  0  0  0  0  0  0  0  0  0
    2.1540    1.5290    7.1810 H   0  0  0  0  0  0  0  0  0  0  0  0
   -2.1300   -6.1020    4.4790 H   0  0  0  0  0  0  0  0  0  0  0  0
   -2.0080   -7.7170    5.1260 H   0  0  0  0  0  0  0  0  0  0  0  0
    1.7370   -7.3500    6.3340 H   0  0  0  0  0  0  0  0  0  0  0  0
    4.3550    0.2150    5.4820 H   0  0  0  0  0  0  0  0  0  0  0  0
    4.2440    1.9370    5.9160 H   0  0  0  0  0  0  0  0  0  0  0  0
    3.0360    1.2020    4.8540 H   0  0  0  0  0  0  0  0  0  0  0  0
   -2.2140   -5.1890    6.8550 H   0  0  0  0  0  0  0  0  0  0  0  0
   -2.0130   -6.8380    7.4720 H   0  0  0  0  0  0  0  0  0  0  0  0
   -3.4780   -6.3910    6.5760 H   0  0  0  0  0  0  0  0  0  0  0  0
   -2.5060    2.2530    5.3280 H   0  0  0  0  0  0  0  0  0  0  0  0
   -0.9770    2.9850    4.8120 H   0  0  0  0  0  0  0  0  0  0  0  0
   -2.0710    2.3370    3.6010 H   0  0  0  0  0  0  0  0  0  0  0  0
   -4.4130   -0.4840    1.4080 H   0  0  0  0  0  0  0  0  0  0  0  0
   -5.0640   -1.9620    2.0890 H   0  0  0  0  0  0  0  0  0  0  0  0
  1  2  1  0
  1  5  2  0
  1 15  1  0
  2  6  2  0
  2 18  1  0
  3  4  2  0
  3  7  1  0
  3 80  1  0
  4  8  1  0
  4 81  1  0
  5 11  1  0
  5 19  1  0
  6 12  1  0
  6 22  1  0
  7 13  2  0
  7 25  1  0
  8 14  2  0
  8 82  1  0
  9 11  2  0
  9 13  1  0
  9 83  1  0
 10 12  2  0
 10 14  1  0
 10 84  1  0
 11 12  1  0
 13 14  1  0
 15 16  2  0
 15 21  1  0
 16 17  1  0
 16 85  1  0
 17 18  2  0
 17 86  1  0
 18 24  1  0
 19 20  1  0
 19 35  1  0
 20 21  1  0
 20 33  1  0
 21 34  1  0
 21 87  1  1
 22 23  1  0
 22 37  1  0
 22 88  1  1
 23 24  1  0
 23 28  1  0
 23 32  1  1
 24 89  1  0
 24 90  1  0
 25 26  2  0
 25 27  1  0
 27 31  1  0
 27 91  1  0
 27 92  1  0
 28 29  2  0
 28 30  1  0
 30 36  1  0
 30 93  1  0
 30 94  1  0
 31 95  1  0
 31 96  1  0
 31 97  1  0
 32 43  1  0
 32 98  1  0
 32 99  1  0
 33100  1  0
 33101  1  0
 33102  1  0
 34103  1  0
 34104  1  0
 34105  1  0
 35106  1  0
 35107  1  0
 35108  1  0
 36 79  1  0
 36109  1  0
 36110  1  0
 37111  1  0
 37112  1  0
 37113  1  0
 38 39  2  0
 38 43  1  0
 38114  1  0
 39 40  1  0
 39115  1  0
 40 41  2  0
 40116  1  0
 41 42  1  0
 41117  1  0
 42 43  2  0
 42118  1  0
 44 46  1  0
 44 47  2  0
 44 60  1  0
 45 48  1  0
 45 49  2  0
 45 66  1  0
 46 54  2  0
 46 63  1  0
 47 55  1  0
 48 56  2  0
 48 69  1  0
 49 57  1  0
 49119  1  0
 50 52  2  0
 50 54  1  0
 50 65  1  0
 51 53  1  0
 51 55  2  0
 51 72  1  0
 52 56  1  0
 52 71  1  0
 53 57  2  0
 53 75  1  0
 54 58  1  0
 55 58  1  0
 56 59  1  0
 57 59  1  0
 58 59  2  0
 60 61  2  0
 60120  1  0
 61 62  1  0
 61 79  1  0
 62 63  2  0
 62121  1  0
 63 64  1  0
 64 65  2  0
 64 78  1  0
 65122  1  0
 66 67  2  0
 66123  1  0
 67 68  1  0
 67124  1  0
 68 69  2  0
 68125  1  0
 69 70  1  0
 70 71  1  0
 70126  1  0
 70127  1  0
 71 76  1  0
 71128  1  1
 72 73  2  0
 72 74  1  0
 74 77  1  0
 74129  1  0
 74130  1  0
 75131  1  0
 76132  1  0
 76133  1  0
 76134  1  0
 77135  1  0
 77136  1  0
 77137  1  0
 78138  1  0
 78139  1  0
 78140  1  0
 79141  1  0
 79142  1  0
M  END
