
     RDKit          3D

142158  0  0  0  0  0  0  0  0999 V2000
    3.6570    1.1370    2.6510 C   0  0  0  0  0  0  0  0  0  0  0  0
    3.9120   -0.2250    2.3970 C   0  0  0  0  0  0  0  0  0  0  0  0
    5.2080    2.2150   -1.9310 C   0  0  0  0  0  0  0  0  0  0  0  0
    5.6200    0.8710   -2.0640 C   0  0  0  0  0  0  0  0  0  0  0  0
    3.9310    2.1090    1.6510 C   0  0  0  0  0  0  0  0  0  0  0  0
    4.5070   -0.5820    1.1760 C   0  0  0  0  0  0  0  0  0  0  0  0
    4.6080    2.6210   -0.6960 C   0  0  0  0  0  0  0  0  0  0  0  0
    5.3800   -0.0370   -1.0270 C   0  0  0  0  0  0  0  0  0  0  0  0
    4.4450    1.7100    0.3840 C   0  0  0  0  0  0  0  0  0  0  0  0
    4.7830    0.3600    0.1790 C   0  0  0  0  0  0  0  0  0  0  0  0
    3.1110    1.5240    3.9040 C   0  0  0  0  0  0  0  0  0  0  0  0
    2.8280    0.5600    4.9030 C   0  0  0  0  0  0  0  0  0  0  0  0
    3.0760   -0.7880    4.6210 C   0  0  0  0  0  0  0  0  0  0  0  0
    3.5420   -1.1770    3.3660 C   0  0  0  0  0  0  0  0  0  0  0  0
    5.4250    3.0670   -3.0420 C   0  0  0  0  0  0  0  0  0  0  0  0
    6.0530    2.6230   -4.2100 C   0  0  0  0  0  0  0  0  0  0  0  0
    6.4780    1.3080   -4.3060 C   0  0  0  0  0  0  0  0  0  0  0  0
    6.2520    0.4380   -3.2460 C   0  0  0  0  0  0  0  0  0  0  0  0
    2.8540    2.8890    4.1640 C   0  0  0  0  0  0  0  0  0  0  0  0
    2.2990    3.2700    5.3960 C   0  0  0  0  0  0  0  0  0  0  0  0
    2.0080    2.3240    6.3760 C   0  0  0  0  0  0  0  0  0  0  0  0
    2.2750    0.9820    6.1270 C   0  0  0  0  0  0  0  0  0  0  0  0
    3.1660    3.8440    3.1930 C   0  0  0  0  0  0  0  0  0  0  0  0
    3.7090    3.4750    1.9510 C   0  0  0  0  0  0  0  0  0  0  0  0
    4.2010    4.5120    0.9480 C   0  0  1  0  0  0  0  0  0  0  0  0
    4.0290    4.0240   -0.5130 C   0  0  2  0  0  0  0  0  0  0  0  0
    1.9790    0.0450    7.0820 O   0  0  0  0  0  0  0  0  0  0  0  0
    3.6150   -2.5140    3.0560 O   0  0  0  0  0  0  0  0  0  0  0  0
    2.5670    4.0380   -0.9870 C   0  0  0  0  0  0  0  0  0  0  0  0
    3.6440    5.9300    1.1280 C   0  0  0  0  0  0  0  0  0  0  0  0
   -0.3910   -3.4690   -0.4920 C   0  0  0  0  0  0  0  0  0  0  0  0
   -1.2960   -3.6160   -1.5850 C   0  0  0  0  0  0  0  0  0  0  0  0
    1.4070   -8.0230   -1.4230 C   0  0  0  0  0  0  0  0  0  0  0  0
    0.7600   -8.0440   -2.6540 C   0  0  0  0  0  0  0  0  0  0  0  0
    0.5460   -4.5050   -0.2620 C   0  0  0  0  0  0  0  0  0  0  0  0
   -1.2700   -4.7880   -2.4260 C   0  0  0  0  0  0  0  0  0  0  0  0
    1.2510   -6.8720   -0.6320 C   0  0  0  0  0  0  0  0  0  0  0  0
   -0.0620   -6.9550   -3.0020 C   0  0  0  0  0  0  0  0  0  0  0  0
    0.4990   -5.7260   -1.0170 C   0  0  0  0  0  0  0  0  0  0  0  0
   -0.3050   -5.8210   -2.1750 C   0  0  0  0  0  0  0  0  0  0  0  0
   -0.4810   -2.3200    0.3660 C   0  0  0  0  0  0  0  0  0  0  0  0
   -1.4720   -1.3220    0.1390 C   0  0  0  0  0  0  0  0  0  0  0  0
   -2.3120   -1.4670   -0.9580 C   0  0  0  0  0  0  0  0  0  0  0  0
   -2.2170   -2.5680   -1.8140 C   0  0  0  0  0  0  0  0  0  0  0  0
    2.2060   -9.1280   -1.0530 C   0  0  0  0  0  0  0  0  0  0  0  0
    2.3640  -10.2270   -1.8950 C   0  0  0  0  0  0  0  0  0  0  0  0
    1.7230  -10.2340   -3.1300 C   0  0  0  0  0  0  0  0  0  0  0  0
    0.9310   -9.1500   -3.5080 C   0  0  0  0  0  0  0  0  0  0  0  0
    0.3970   -2.1230    1.4540 C   0  0  0  0  0  0  0  0  0  0  0  0
    0.2330   -1.0080    2.2990 C   0  0  0  0  0  0  0  0  0  0  0  0
   -0.7300   -0.0410    2.0530 C   0  0  0  0  0  0  0  0  0  0  0  0
   -1.5920   -0.1890    0.9760 C   0  0  0  0  0  0  0  0  0  0  0  0
    1.6430   -4.3140    0.8010 C   0  0  2  0  0  0  0  0  0  0  0  0
    1.6750   -2.9480    1.5430 C   0  0  2  0  0  0  0  0  0  0  0  0
   -2.4650   -4.9010   -3.4270 C   0  0  1  0  0  0  0  0  0  0  0  0
   -2.6800   -3.5170   -4.0650 C   0  0  0  0  0  0  0  0  0  0  0  0
   -3.1610   -2.5690   -2.9890 C   0  0  0  0  0  0  0  0  0  0  0  0
   -2.4470    0.8230    0.5940 O   0  0  0  0  0  0  0  0  0  0  0  0
    2.8480   -9.1090    0.1580 O   0  0  0  0  0  0  0  0  0  0  0  0
   -0.7450    1.0890    2.8160 O   0  0  0  0  0  0  0  0  0  0  0  0
    3.0650   -4.4790    0.1910 C   0  0  0  0  0  0  0  0  0  0  0  0
    2.3070   -3.1390    2.9590 C   0  0  0  0  0  0  0  0  0  0  0  0
   -2.5380   -5.9960   -4.5120 C   0  0  0  0  0  0  0  0  0  0  0  0
   -3.8480   -6.0290   -5.3030 C   0  0  0  0  0  0  0  0  0  0  0  0
   -2.9830    6.2790    1.3980 C   0  0  0  0  0  0  0  0  0  0  0  0
   -2.1430    5.2330    1.7540 C   0  0  0  0  0  0  0  0  0  0  0  0
   -6.4050    3.0620    0.0540 C   0  0  0  0  0  0  0  0  0  0  0  0
   -5.6000    1.9850    0.4430 C   0  0  0  0  0  0  0  0  0  0  0  0
   -4.2520    6.0230    0.8590 C   0  0  0  0  0  0  0  0  0  0  0  0
   -2.5810    3.9180    1.6140 C   0  0  0  0  0  0  0  0  0  0  0  0
   -5.9660    4.3860    0.1740 C   0  0  0  0  0  0  0  0  0  0  0  0
   -4.3350    2.2420    1.0210 C   0  0  0  0  0  0  0  0  0  0  0  0
   -4.6960    4.6760    0.7160 C   0  0  0  0  0  0  0  0  0  0  0  0
   -3.8630    3.5940    1.1200 C   0  0  0  0  0  0  0  0  0  0  0  0
   -5.1810    7.1770    0.4870 C   0  0  2  0  0  0  0  0  0  0  0  0
   -6.1290    6.7460   -0.6400 C   0  0  0  0  0  0  0  0  0  0  0  0
   -6.8990    5.4920   -0.2510 C   0  0  0  0  0  0  0  0  0  0  0  0
   -4.4740    8.4700    0.0650 C   0  0  0  0  0  0  0  0  0  0  0  0
   -6.1540    0.5980    0.2730 C   0  0  0  0  0  0  0  0  0  0  0  0
   -3.4800    1.0910    1.5440 C   0  0  0  0  0  0  0  0  0  0  0  0
    4.7450   -1.6300    0.9930 H   0  0  0  0  0  0  0  0  0  0  0  0
    5.6620   -1.0820   -1.1600 H   0  0  0  0  0  0  0  0  0  0  0  0
    2.8640   -1.5470    5.3690 H   0  0  0  0  0  0  0  0  0  0  0  0
    5.1020    4.1040   -3.0240 H   0  0  0  0  0  0  0  0  0  0  0  0
    6.2020    3.3080   -5.0380 H   0  0  0  0  0  0  0  0  0  0  0  0
    6.9750    0.9570   -5.2050 H   0  0  0  0  0  0  0  0  0  0  0  0
    6.5840   -0.5940   -3.3410 H   0  0  0  0  0  0  0  0  0  0  0  0
    2.0900    4.3170    5.6020 H   0  0  0  0  0  0  0  0  0  0  0  0
    1.5770    2.6490    7.3180 H   0  0  0  0  0  0  0  0  0  0  0  0
    3.0040    4.8940    3.4260 H   0  0  0  0  0  0  0  0  0  0  0  0
    5.2840    4.5900    1.1340 H   0  0  0  0  0  0  0  0  0  0  0  0
    4.5910    4.7360   -1.1280 H   0  0  0  0  0  0  0  0  0  0  0  0
    1.6230    0.4910    7.8670 H   0  0  0  0  0  0  0  0  0  0  0  0
    1.9250    3.4180   -0.3510 H   0  0  0  0  0  0  0  0  0  0  0  0
    2.4800    3.6500   -2.0100 H   0  0  0  0  0  0  0  0  0  0  0  0
    2.1570    5.0550   -0.9900 H   0  0  0  0  0  0  0  0  0  0  0  0
    3.9750    6.5860    0.3150 H   0  0  0  0  0  0  0  0  0  0  0  0
    2.5490    5.9400    1.1580 H   0  0  0  0  0  0  0  0  0  0  0  0
    4.0100    6.3770    2.0610 H   0  0  0  0  0  0  0  0  0  0  0  0
    1.7530   -6.8840    0.3330 H   0  0  0  0  0  0  0  0  0  0  0  0
   -0.4780   -7.0050   -3.9960 H   0  0  0  0  0  0  0  0  0  0  0  0
   -3.0570   -0.7030   -1.1720 H   0  0  0  0  0  0  0  0  0  0  0  0
    2.9780  -11.0740   -1.6100 H   0  0  0  0  0  0  0  0  0  0  0  0
    1.8370  -11.0830   -3.8000 H   0  0  0  0  0  0  0  0  0  0  0  0
    0.4340   -9.1770   -4.4770 H   0  0  0  0  0  0  0  0  0  0  0  0
    0.9060   -0.8420    3.1230 H   0  0  0  0  0  0  0  0  0  0  0  0
    1.4660   -5.0990    1.5510 H   0  0  0  0  0  0  0  0  0  0  0  0
    2.3670   -2.3160    0.9660 H   0  0  0  0  0  0  0  0  0  0  0  0
   -3.3300   -5.1150   -2.7750 H   0  0  0  0  0  0  0  0  0  0  0  0
   -3.4310   -3.5230   -4.8540 H   0  0  0  0  0  0  0  0  0  0  0  0
   -1.7450   -3.1570   -4.5170 H   0  0  0  0  0  0  0  0  0  0  0  0
   -3.2430   -1.5620   -3.4120 H   0  0  0  0  0  0  0  0  0  0  0  0
   -4.1560   -2.8630   -2.6400 H   0  0  0  0  0  0  0  0  0  0  0  0
    3.3610   -9.9270    0.2550 H   0  0  0  0  0  0  0  0  0  0  0  0
    0.1180    1.1750    3.2650 H   0  0  0  0  0  0  0  0  0  0  0  0
    3.2730   -5.4720   -0.2110 H   0  0  0  0  0  0  0  0  0  0  0  0
    3.2200   -3.7670   -0.6300 H   0  0  0  0  0  0  0  0  0  0  0  0
    3.8430   -4.3000    0.9440 H   0  0  0  0  0  0  0  0  0  0  0  0
    1.6370   -2.8410    3.7790 H   0  0  0  0  0  0  0  0  0  0  0  0
    2.5140   -4.2000    3.1490 H   0  0  0  0  0  0  0  0  0  0  0  0
   -1.7130   -5.8770   -5.2210 H   0  0  0  0  0  0  0  0  0  0  0  0
   -2.4760   -6.9790   -4.0330 H   0  0  0  0  0  0  0  0  0  0  0  0
   -4.7200   -5.9860   -4.6430 H   0  0  0  0  0  0  0  0  0  0  0  0
   -3.8960   -6.9560   -5.8850 H   0  0  0  0  0  0  0  0  0  0  0  0
   -3.9050   -5.2060   -6.0220 H   0  0  0  0  0  0  0  0  0  0  0  0
   -2.6230    7.2950    1.5380 H   0  0  0  0  0  0  0  0  0  0  0  0
   -1.1530    5.4390    2.1470 H   0  0  0  0  0  0  0  0  0  0  0  0
   -7.3920    2.8700   -0.3650 H   0  0  0  0  0  0  0  0  0  0  0  0
   -1.8790    3.1350    1.8910 H   0  0  0  0  0  0  0  0  0  0  0  0
   -5.7790    7.4020    1.3810 H   0  0  0  0  0  0  0  0  0  0  0  0
   -6.8440    7.5480   -0.8620 H   0  0  0  0  0  0  0  0  0  0  0  0
   -5.5600    6.5630   -1.5620 H   0  0  0  0  0  0  0  0  0  0  0  0
   -7.4950    5.1710   -1.1150 H   0  0  0  0  0  0  0  0  0  0  0  0
   -7.5940    5.7110    0.5700 H   0  0  0  0  0  0  0  0  0  0  0  0
   -3.7500    8.2910   -0.7370 H   0  0  0  0  0  0  0  0  0  0  0  0
   -3.9420    8.9280    0.9060 H   0  0  0  0  0  0  0  0  0  0  0  0
   -5.1940    9.2150   -0.2930 H   0  0  0  0  0  0  0  0  0  0  0  0
   -6.9520    0.5800   -0.4790 H   0  0  0  0  0  0  0  0  0  0  0  0
   -5.3840   -0.0950   -0.0780 H   0  0  0  0  0  0  0  0  0  0  0  0
   -6.5680    0.2380    1.2210 H   0  0  0  0  0  0  0  0  0  0  0  0
   -4.0790    0.1860    1.6980 H   0  0  0  0  0  0  0  0  0  0  0  0
   -3.0960    1.3610    2.5330 H   0  0  0  0  0  0  0  0  0  0  0  0
  1  2  1  0
  1  5  2  0
  1 11  1  0
  2  6  2  0
  2 14  1  0
  3  4  2  0
  3  7  1  0
  3 15  1  0
  4  8  1  0
  4 18  1  0
  5  9  1  0
  5 24  1  0
  6 10  1  0
  6 81  1  0
  7  9  2  0
  7 26  1  0
  8 10  2  0
  8 82  1  0
  9 10  1  0
 11 12  2  0
 11 19  1  0
 12 13  1  0
 12 22  1  0
 13 14  2  0
 13 83  1  0
 14 28  1  0
 15 16  2  0
 15 84  1  0
 16 17  1  0
 16 85  1  0
 17 18  2  0
 17 86  1  0
 18 87  1  0
 19 20  2  0
 19 23  1  0
 20 21  1  0
 20 88  1  0
 21 22  2  0
 21 89  1  0
 22 27  1  0
 23 24  2  0
 23 90  1  0
 24 25  1  0
 25 26  1  0
 25 30  1  0
 25 91  1  1
 26 29  1  0
 26 92  1  6
 27 93  1  0
 28 62  1  0
 29 94  1  0
 29 95  1  0
 29 96  1  0
 30 97  1  0
 30 98  1  0
 30 99  1  0
 31 32  2  0
 31 35  1  0
 31 41  1  0
 32 36  1  0
 32 44  1  0
 33 34  1  0
 33 37  2  0
 33 45  1  0
 34 38  2  0
 34 48  1  0
 35 39  2  0
 35 53  1  0
 36 40  2  0
 36 55  1  0
 37 39  1  0
 37100  1  0
 38 40  1  0
 38101  1  0
 39 40  1  0
 41 42  2  0
 41 49  1  0
 42 43  1  0
 42 52  1  0
 43 44  2  0
 43102  1  0
 44 57  1  0
 45 46  2  0
 45 59  1  0
 46 47  1  0
 46103  1  0
 47 48  2  0
 47104  1  0
 48105  1  0
 49 50  2  0
 49 54  1  0
 50 51  1  0
 50106  1  0
 51 52  2  0
 51 60  1  0
 52 58  1  0
 53 54  1  0
 53 61  1  0
 53107  1  1
 54 62  1  0
 54108  1  6
 55 56  1  0
 55 63  1  0
 55109  1  1
 56 57  1  0
 56110  1  0
 56111  1  0
 57112  1  0
 57113  1  0
 58 80  1  0
 59114  1  0
 60115  1  0
 61116  1  0
 61117  1  0
 61118  1  0
 62119  1  0
 62120  1  0
 63 64  1  0
 63121  1  0
 63122  1  0
 64123  1  0
 64124  1  0
 64125  1  0
 65 66  2  0
 65 69  1  0
 65126  1  0
 66 70  1  0
 66127  1  0
 67 68  1  0
 67 71  2  0
 67128  1  0
 68 72  2  0
 68 79  1  0
 69 73  2  0
 69 75  1  0
 70 74  2  0
 70129  1  0
 71 73  1  0
 71 77  1  0
 72 74  1  0
 72 80  1  0
 73 74  1  0
 75 76  1  0
 75 78  1  0
 75130  1  1
 76 77  1  0
 76131  1  0
 76132  1  0
 77133  1  0
 77134  1  0
 78135  1  0
 78136  1  0
 78137  1  0
 79138  1  0
 79139  1  0
 79140  1  0
 80141  1  0
 80142  1  0
M  END
