
     RDKit          3D

145159  0  0  0  0  0  0  0  0999 V2000
   -4.6120    3.1460    2.6620 C   0  0  0  0  0  0  0  0  0  0  0  0
   -4.7590    4.1210    3.6760 C   0  0  0  0  0  0  0  0  0  0  0  0
   -0.6280    5.2460    2.1890 C   0  0  0  0  0  0  0  0  0  0  0  0
   -3.3200    2.7290    2.2420 C   0  0  0  0  0  0  0  0  0  0  0  0
   -3.6100    4.7890    4.1540 C   0  0  0  0  0  0  0  0  0  0  0  0
   -1.2630    4.2270    1.4970 C   0  0  0  0  0  0  0  0  0  0  0  0
   -1.2930    5.4030    3.3760 N   0  0  0  0  0  0  0  0  0  0  0  0
   -2.3420    3.7450    2.3200 C   0  0  0  0  0  0  0  0  0  0  0  0
   -2.4640    4.6760    3.3550 C   0  0  0  0  0  0  0  0  0  0  0  0
   -5.7530    2.5930    2.0240 C   0  0  0  0  0  0  0  0  0  0  0  0
   -7.0480    2.9390    2.4680 C   0  0  0  0  0  0  0  0  0  0  0  0
   -7.1870    3.8110    3.5500 C   0  0  0  0  0  0  0  0  0  0  0  0
   -6.0630    4.3900    4.1450 C   0  0  0  0  0  0  0  0  0  0  0  0
   -5.6170    1.7060    0.9220 C   0  0  0  0  0  0  0  0  0  0  0  0
   -6.7500    1.2110    0.2690 C   0  0  0  0  0  0  0  0  0  0  0  0
   -8.0230    1.5660    0.7110 C   0  0  0  0  0  0  0  0  0  0  0  0
   -8.1710    2.4160    1.8090 C   0  0  0  0  0  0  0  0  0  0  0  0
   -3.2330    1.2820    1.6630 C   0  0  2  0  0  0  0  0  0  0  0  0
   -4.2170    1.3020    0.4560 C   0  0  0  0  0  0  0  0  0  0  0  0
   -3.5690    5.9040    5.5350 S   0  0  0  0  0  0  0  0  0  0  0  0
   -3.7700    0.2590    2.7620 C   0  0  0  0  0  0  0  0  0  0  0  0
   -1.7790    0.8020    1.2520 C   0  0  0  0  0  0  0  0  0  0  0  0
   -0.9660    3.8610    0.0910 C   0  0  0  0  0  0  0  0  0  0  0  0
   -3.9640   -1.1830    2.2920 C   0  0  0  0  0  0  0  0  0  0  0  0
    0.5150    6.1210    1.8300 C   0  0  0  0  0  0  0  0  0  0  0  0
    2.5530   -2.4810   -0.4690 C   0  0  0  0  0  0  0  0  0  0  0  0
    1.5300   -3.0190    0.3610 C   0  0  0  0  0  0  0  0  0  0  0  0
    1.4770    1.4510    1.6840 C   0  0  0  0  0  0  0  0  0  0  0  0
    2.7310   -1.0760   -0.5480 C   0  0  0  0  0  0  0  0  0  0  0  0
    0.8010   -2.1660    1.2420 C   0  0  0  0  0  0  0  0  0  0  0  0
    2.1900    1.1620    0.5900 C   0  0  0  0  0  0  0  0  0  0  0  0
    0.6710    0.2950    2.2120 C   0  0  2  0  0  0  0  0  0  0  0  0
    2.0140   -0.2610    0.3300 C   0  0  0  0  0  0  0  0  0  0  0  0
    1.0800   -0.7950    1.2400 C   0  0  0  0  0  0  0  0  0  0  0  0
    3.4210   -3.3600   -1.1750 C   0  0  0  0  0  0  0  0  0  0  0  0
    3.1740   -4.7530   -1.2050 C   0  0  0  0  0  0  0  0  0  0  0  0
    2.0880   -5.2470   -0.4730 C   0  0  0  0  0  0  0  0  0  0  0  0
    1.2950   -4.4100    0.3230 C   0  0  0  0  0  0  0  0  0  0  0  0
    4.5880   -2.8660   -1.8050 C   0  0  0  0  0  0  0  0  0  0  0  0
    5.4630   -3.7220   -2.4830 C   0  0  0  0  0  0  0  0  0  0  0  0
    5.1910   -5.0860   -2.5430 C   0  0  0  0  0  0  0  0  0  0  0  0
    4.0430   -5.5990   -1.9330 C   0  0  0  0  0  0  0  0  0  0  0  0
    3.7040   -0.5170   -1.5770 C   0  0  1  0  0  0  0  0  0  0  0  0
    4.9550   -1.4120   -1.6270 C   0  0  0  0  0  0  0  0  0  0  0  0
   -0.1840   -2.7850    2.2190 C   0  0  1  0  0  0  0  0  0  0  0  0
   -0.8140   -4.0460    1.6150 C   0  0  0  0  0  0  0  0  0  0  0  0
    0.2410   -5.0520    1.1870 C   0  0  0  0  0  0  0  0  0  0  0  0
    1.6610    2.7060    2.4240 C   0  0  0  0  0  0  0  0  0  0  0  0
    1.3150    2.8370    3.5910 O   0  0  0  0  0  0  0  0  0  0  0  0
    6.1940   -5.9340   -3.2140 C   0  0  0  0  0  0  0  0  0  0  0  0
    6.5340   -5.6530   -4.3590 O   0  0  0  0  0  0  0  0  0  0  0  0
    6.7870   -7.0880   -2.4290 C   0  0  0  0  0  0  0  0  0  0  0  0
    3.7190   -6.9320   -2.0150 O   0  0  0  0  0  0  0  0  0  0  0  0
    8.3050   -7.0190   -2.4420 C   0  0  0  0  0  0  0  0  0  0  0  0
    3.1090   -0.3900   -3.0030 C   0  0  0  0  0  0  0  0  0  0  0  0
    0.4690   -3.0530    3.5760 C   0  0  0  0  0  0  0  0  0  0  0  0
   -0.8190    0.6090    2.4530 C   0  0  0  0  0  0  0  0  0  0  0  0
   -5.0730    3.4710   -3.7520 C   0  0  0  0  0  0  0  0  0  0  0  0
   -3.7490    3.8670   -3.6960 C   0  0  0  0  0  0  0  0  0  0  0  0
   -3.7430   -1.1220   -2.9080 C   0  0  0  0  0  0  0  0  0  0  0  0
   -2.4030   -0.7490   -2.7090 C   0  0  0  0  0  0  0  0  0  0  0  0
   -5.3930    2.1170   -3.6620 C   0  0  0  0  0  0  0  0  0  0  0  0
   -2.7270    2.9150   -3.5280 C   0  0  0  0  0  0  0  0  0  0  0  0
   -4.7220   -0.1990   -3.2820 C   0  0  0  0  0  0  0  0  0  0  0  0
   -1.9970    0.5800   -2.9890 C   0  0  0  0  0  0  0  0  0  0  0  0
   -4.3810    1.1520   -3.4250 C   0  0  0  0  0  0  0  0  0  0  0  0
   -3.0170    1.5460   -3.3180 C   0  0  0  0  0  0  0  0  0  0  0  0
   -6.8440    1.7060   -3.7440 C   0  0  0  0  0  0  0  0  0  0  0  0
   -6.9810    0.2860   -4.2770 C   0  0  0  0  0  0  0  0  0  0  0  0
   -6.1430   -0.6820   -3.4510 C   0  0  0  0  0  0  0  0  0  0  0  0
   -1.3140    3.4170   -3.5440 C   0  0  0  0  0  0  0  0  0  0  0  0
   -0.3380    2.2920   -3.8290 C   0  0  0  0  0  0  0  0  0  0  0  0
   -0.5420    1.1020   -2.8680 C   0  0  2  0  0  0  0  0  0  0  0  0
    0.5980    0.0760   -3.0880 C   0  0  0  0  0  0  0  0  0  0  0  0
    2.0140    0.6690   -3.1580 C   0  0  0  0  0  0  0  0  0  0  0  0
   -1.5140   -1.8400   -2.1730 C   0  0  0  0  0  0  0  0  0  0  0  0
   -1.0960    6.1220    4.0560 H   0  0  0  0  0  0  0  0  0  0  0  0
   -8.1710    4.0760    3.9270 H   0  0  0  0  0  0  0  0  0  0  0  0
   -6.2240    5.1010    4.9550 H   0  0  0  0  0  0  0  0  0  0  0  0
   -6.6460    0.5420   -0.5790 H   0  0  0  0  0  0  0  0  0  0  0  0
   -8.9050    1.1830    0.2020 H   0  0  0  0  0  0  0  0  0  0  0  0
   -9.1760    2.6820    2.1360 H   0  0  0  0  0  0  0  0  0  0  0  0
   -3.8880    2.0220   -0.3020 H   0  0  0  0  0  0  0  0  0  0  0  0
   -4.2540    0.3170   -0.0240 H   0  0  0  0  0  0  0  0  0  0  0  0
   -2.6590    5.2100    6.2300 H   0  0  0  0  0  0  0  0  0  0  0  0
   -4.7350    0.5640    3.1840 H   0  0  0  0  0  0  0  0  0  0  0  0
   -3.1140    0.2710    3.6420 H   0  0  0  0  0  0  0  0  0  0  0  0
   -1.8580   -0.1530    0.7180 H   0  0  0  0  0  0  0  0  0  0  0  0
   -1.3410    1.4770    0.5250 H   0  0  0  0  0  0  0  0  0  0  0  0
   -0.0980    3.2020    0.0270 H   0  0  0  0  0  0  0  0  0  0  0  0
   -0.7400    4.7600   -0.4950 H   0  0  0  0  0  0  0  0  0  0  0  0
   -1.8250    3.3720   -0.3840 H   0  0  0  0  0  0  0  0  0  0  0  0
   -4.2230   -1.8170    3.1450 H   0  0  0  0  0  0  0  0  0  0  0  0
   -3.0700   -1.6000    1.8340 H   0  0  0  0  0  0  0  0  0  0  0  0
   -4.7830   -1.2630    1.5710 H   0  0  0  0  0  0  0  0  0  0  0  0
    1.2710    6.1170    2.6230 H   0  0  0  0  0  0  0  0  0  0  0  0
    0.1710    7.1510    1.6820 H   0  0  0  0  0  0  0  0  0  0  0  0
    0.9980    5.7870    0.9050 H   0  0  0  0  0  0  0  0  0  0  0  0
    2.8960    1.8010    0.0840 H   0  0  0  0  0  0  0  0  0  0  0  0
    1.1080    0.0300    3.1870 H   0  0  0  0  0  0  0  0  0  0  0  0
    1.8910   -6.3200   -0.4700 H   0  0  0  0  0  0  0  0  0  0  0  0
    6.3700   -3.3280   -2.9410 H   0  0  0  0  0  0  0  0  0  0  0  0
    4.0570    0.4760   -1.2700 H   0  0  0  0  0  0  0  0  0  0  0  0
    5.6250   -1.0830   -2.4330 H   0  0  0  0  0  0  0  0  0  0  0  0
    5.5160   -1.3210   -0.6870 H   0  0  0  0  0  0  0  0  0  0  0  0
   -1.0120   -2.0960    2.3720 H   0  0  0  0  0  0  0  0  0  0  0  0
   -1.5050   -4.5080    2.3310 H   0  0  0  0  0  0  0  0  0  0  0  0
   -1.4160   -3.7600    0.7420 H   0  0  0  0  0  0  0  0  0  0  0  0
   -0.2500   -5.8660    0.6410 H   0  0  0  0  0  0  0  0  0  0  0  0
    0.7270   -5.4910    2.0660 H   0  0  0  0  0  0  0  0  0  0  0  0
    2.1800    3.5110    1.8800 H   0  0  0  0  0  0  0  0  0  0  0  0
    6.4430   -8.0200   -2.8910 H   0  0  0  0  0  0  0  0  0  0  0  0
    6.4340   -7.0710   -1.3900 H   0  0  0  0  0  0  0  0  0  0  0  0
    4.0930   -7.3080   -2.8320 H   0  0  0  0  0  0  0  0  0  0  0  0
    8.6550   -6.1560   -1.8640 H   0  0  0  0  0  0  0  0  0  0  0  0
    8.7310   -7.9250   -2.0080 H   0  0  0  0  0  0  0  0  0  0  0  0
    8.6890   -6.9120   -3.4610 H   0  0  0  0  0  0  0  0  0  0  0  0
    3.9310   -0.0970   -3.6750 H   0  0  0  0  0  0  0  0  0  0  0  0
    2.7450   -1.3570   -3.3730 H   0  0  0  0  0  0  0  0  0  0  0  0
    1.3720   -3.6660    3.4870 H   0  0  0  0  0  0  0  0  0  0  0  0
    0.7610   -2.1160    4.0600 H   0  0  0  0  0  0  0  0  0  0  0  0
   -0.2280   -3.5640    4.2460 H   0  0  0  0  0  0  0  0  0  0  0  0
   -1.2000   -0.2030    3.0790 H   0  0  0  0  0  0  0  0  0  0  0  0
   -0.8750    1.4950    3.0940 H   0  0  0  0  0  0  0  0  0  0  0  0
   -5.8520    4.2210   -3.8760 H   0  0  0  0  0  0  0  0  0  0  0  0
   -3.5050    4.9220   -3.7930 H   0  0  0  0  0  0  0  0  0  0  0  0
   -4.0440   -2.1560   -2.7430 H   0  0  0  0  0  0  0  0  0  0  0  0
   -7.2880    1.7880   -2.7440 H   0  0  0  0  0  0  0  0  0  0  0  0
   -7.3960    2.3870   -4.4050 H   0  0  0  0  0  0  0  0  0  0  0  0
   -8.0310   -0.0260   -4.2640 H   0  0  0  0  0  0  0  0  0  0  0  0
   -6.6570    0.2530   -5.3260 H   0  0  0  0  0  0  0  0  0  0  0  0
   -6.5890   -0.8170   -2.4600 H   0  0  0  0  0  0  0  0  0  0  0  0
   -6.1450   -1.6570   -3.9500 H   0  0  0  0  0  0  0  0  0  0  0  0
   -1.0830    3.8840   -2.5870 H   0  0  0  0  0  0  0  0  0  0  0  0
   -1.1990    4.1840   -4.3210 H   0  0  0  0  0  0  0  0  0  0  0  0
   -0.4600    1.9500   -4.8670 H   0  0  0  0  0  0  0  0  0  0  0  0
    0.6690    2.7170   -3.7510 H   0  0  0  0  0  0  0  0  0  0  0  0
   -0.4390    1.4720   -1.8380 H   0  0  0  0  0  0  0  0  0  0  0  0
    0.4130   -0.4950   -4.0050 H   0  0  0  0  0  0  0  0  0  0  0  0
    0.6030   -0.6280   -2.2600 H   0  0  0  0  0  0  0  0  0  0  0  0
    2.1410    1.1270   -4.1480 H   0  0  0  0  0  0  0  0  0  0  0  0
    2.1460    1.4690   -2.4170 H   0  0  0  0  0  0  0  0  0  0  0  0
   -0.9900   -1.4980   -1.2790 H   0  0  0  0  0  0  0  0  0  0  0  0
   -0.8160   -2.1920   -2.9370 H   0  0  0  0  0  0  0  0  0  0  0  0
   -2.0920   -2.7160   -1.8560 H   0  0  0  0  0  0  0  0  0  0  0  0
  1  2  2  0
  1  4  1  0
  1 10  1  0
  2  5  1  0
  2 13  1  0
  3  6  2  0
  3  7  1  0
  3 25  1  0
  4  8  2  0
  4 18  1  0
  5  9  2  0
  5 20  1  0
  6  8  1  0
  6 23  1  0
  7  9  1  0
  7 77  1  0
  8  9  1  0
 10 11  2  0
 10 14  1  0
 11 12  1  0
 11 17  1  0
 12 13  2  0
 12 78  1  0
 13 79  1  0
 14 15  2  0
 14 19  1  0
 15 16  1  0
 15 80  1  0
 16 17  2  0
 16 81  1  0
 17 82  1  0
 18 19  1  0
 18 21  1  1
 18 22  1  0
 19 83  1  0
 19 84  1  0
 20 85  1  0
 21 24  1  0
 21 86  1  0
 21 87  1  0
 22 57  1  0
 22 88  1  0
 22 89  1  0
 23 90  1  0
 23 91  1  0
 23 92  1  0
 24 93  1  0
 24 94  1  0
 24 95  1  0
 25 96  1  0
 25 97  1  0
 25 98  1  0
 26 27  2  0
 26 29  1  0
 26 35  1  0
 27 30  1  0
 27 38  1  0
 28 31  2  0
 28 32  1  0
 28 48  1  0
 29 33  2  0
 29 43  1  0
 30 34  2  0
 30 45  1  0
 31 33  1  0
 31 99  1  0
 32 34  1  0
 32 57  1  0
 32100  1  1
 33 34  1  0
 35 36  2  0
 35 39  1  0
 36 37  1  0
 36 42  1  0
 37 38  2  0
 37101  1  0
 38 47  1  0
 39 40  2  0
 39 44  1  0
 40 41  1  0
 40102  1  0
 41 42  2  0
 41 50  1  0
 42 53  1  0
 43 44  1  0
 43 55  1  0
 43103  1  1
 44104  1  0
 44105  1  0
 45 46  1  0
 45 56  1  0
 45106  1  1
 46 47  1  0
 46107  1  0
 46108  1  0
 47109  1  0
 47110  1  0
 48 49  2  0
 48111  1  0
 50 51  2  0
 50 52  1  0
 52 54  1  0
 52112  1  0
 52113  1  0
 53114  1  0
 54115  1  0
 54116  1  0
 54117  1  0
 55 75  1  0
 55118  1  0
 55119  1  0
 56120  1  0
 56121  1  0
 56122  1  0
 57123  1  0
 57124  1  0
 58 59  2  0
 58 62  1  0
 58125  1  0
 59 63  1  0
 59126  1  0
 60 61  1  0
 60 64  2  0
 60127  1  0
 61 65  2  0
 61 76  1  0
 62 66  2  0
 62 68  1  0
 63 67  2  0
 63 71  1  0
 64 66  1  0
 64 70  1  0
 65 67  1  0
 65 73  1  0
 66 67  1  0
 68 69  1  0
 68128  1  0
 68129  1  0
 69 70  1  0
 69130  1  0
 69131  1  0
 70132  1  0
 70133  1  0
 71 72  1  0
 71134  1  0
 71135  1  0
 72 73  1  0
 72136  1  0
 72137  1  0
 73 74  1  0
 73138  1  1
 74 75  1  0
 74139  1  0
 74140  1  0
 75141  1  0
 75142  1  0
 76143  1  0
 76144  1  0
 76145  1  0
M  END
