
     RDKit          3D

131141  0  0  0  0  0  0  0  0999 V2000
    1.5060    1.5870    2.3330 C   0  0  0  0  0  0  0  0  0  0  0  0
    0.2980    1.5190    1.5900 C   0  0  0  0  0  0  0  0  0  0  0  0
    4.0050    0.1690   -1.6980 C   0  0  0  0  0  0  0  0  0  0  0  0
    2.8090    0.1130   -2.4000 C   0  0  0  0  0  0  0  0  0  0  0  0
    2.7110    1.1140    1.7400 C   0  0  0  0  0  0  0  0  0  0  0  0
    0.3520    0.7780    0.3800 C   0  0  0  0  0  0  0  0  0  0  0  0
    3.9700    0.4920   -0.3360 C   0  0  0  0  0  0  0  0  0  0  0  0
    1.6050    0.3040   -1.7260 C   0  0  0  0  0  0  0  0  0  0  0  0
    2.7600    0.7350    0.3650 C   0  0  0  0  0  0  0  0  0  0  0  0
    1.5530    0.5940   -0.3400 C   0  0  0  0  0  0  0  0  0  0  0  0
    1.4890    2.1320    3.6440 C   0  0  0  0  0  0  0  0  0  0  0  0
    0.3120    2.7080    4.1360 C   0  0  0  0  0  0  0  0  0  0  0  0
   -0.8350    2.7940    3.3470 C   0  0  0  0  0  0  0  0  0  0  0  0
   -0.8730    2.2090    2.0680 C   0  0  0  0  0  0  0  0  0  0  0  0
    3.9890    1.0910    2.5590 C   0  0  0  0  0  0  0  0  0  0  0  0
    3.7740    1.1120    4.0680 C   0  0  1  0  0  0  0  0  0  0  0  0
    2.7640    2.1890    4.4780 C   0  0  2  0  0  0  0  0  0  0  0  0
    3.5220   -0.2890    4.6280 C   0  0  0  0  0  0  0  0  0  0  0  0
    4.3940   -0.8390    5.3090 O   0  0  0  0  0  0  0  0  0  0  0  0
    2.2320   -1.0090    4.3320 C   0  0  0  0  0  0  0  0  0  0  0  0
   -1.9340    3.5920    3.9470 C   0  0  0  0  0  0  0  0  0  0  0  0
   -2.4400    3.2230    5.0060 O   0  0  0  0  0  0  0  0  0  0  0  0
   -2.3070    4.8980    3.2970 C   0  0  0  0  0  0  0  0  0  0  0  0
   -0.7640    0.0900   -0.0830 O   0  0  0  0  0  0  0  0  0  0  0  0
    0.4440    0.2910   -2.4590 O   0  0  0  0  0  0  0  0  0  0  0  0
    2.5660    2.1860    6.0030 C   0  0  0  0  0  0  0  0  0  0  0  0
    5.3180   -0.0310   -2.3940 C   0  0  0  0  0  0  0  0  0  0  0  0
   -2.0380    2.4810    1.1250 C   0  0  0  0  0  0  0  0  0  0  0  0
   -3.6400    1.8270    1.6820 S   0  0  0  0  0  0  0  0  0  0  0  0
   -1.5550   -2.3830   -3.2700 C   0  0  0  0  0  0  0  0  0  0  0  0
   -1.9530   -2.5120   -1.9280 C   0  0  0  0  0  0  0  0  0  0  0  0
    5.5530   -4.2030   -1.6190 C   0  0  0  0  0  0  0  0  0  0  0  0
    2.3880   -3.9540    2.0350 C   0  0  0  0  0  0  0  0  0  0  0  0
   -0.2130   -2.6960   -3.6360 C   0  0  0  0  0  0  0  0  0  0  0  0
    5.2800   -4.2620   -0.2580 C   0  0  0  0  0  0  0  0  0  0  0  0
    3.6360   -4.1480    1.6060 C   0  0  0  0  0  0  0  0  0  0  0  0
    4.5430   -3.8830   -2.5190 C   0  0  0  0  0  0  0  0  0  0  0  0
   -0.8950   -2.7260   -0.9760 C   0  0  0  0  0  0  0  0  0  0  0  0
    1.2490   -3.5880    1.1440 C   0  0  0  0  0  0  0  0  0  0  0  0
    2.2020   -3.2080   -3.0030 C   0  0  0  0  0  0  0  0  0  0  0  0
    3.9570   -4.0210    0.1800 C   0  0  0  0  0  0  0  0  0  0  0  0
    0.8230   -3.0010   -2.6640 C   0  0  0  0  0  0  0  0  0  0  0  0
    3.2260   -3.5820   -2.0980 C   0  0  0  0  0  0  0  0  0  0  0  0
    0.4880   -3.0460   -1.2870 C   0  0  0  0  0  0  0  0  0  0  0  0
    1.5580   -3.4000   -0.3410 C   0  0  0  0  0  0  0  0  0  0  0  0
    2.9110   -3.6680   -0.7390 C   0  0  0  0  0  0  0  0  0  0  0  0
   -2.5070   -1.9410   -4.2380 C   0  0  0  0  0  0  0  0  0  0  0  0
   -3.8420   -1.7010   -3.9060 C   0  0  0  0  0  0  0  0  0  0  0  0
   -4.2770   -2.0130   -2.6410 C   0  0  0  0  0  0  0  0  0  0  0  0
   -3.3670   -2.4200   -1.6610 C   0  0  0  0  0  0  0  0  0  0  0  0
    0.1150   -2.7230   -5.1330 C   0  0  0  0  0  0  0  0  0  0  0  0
   -1.0940   -2.7750   -6.0590 C   0  0  0  0  0  0  0  0  0  0  0  0
   -2.0870   -1.7060   -5.6670 C   0  0  0  0  0  0  0  0  0  0  0  0
   -1.2520   -2.3690    0.4160 C   0  0  0  0  0  0  0  0  0  0  0  0
   -1.6170   -3.2520    1.1910 O   0  0  0  0  0  0  0  0  0  0  0  0
   -1.1920   -0.8970    0.8540 C   0  0  0  0  0  0  0  0  0  0  0  0
   -3.9900   -3.0400   -0.4670 C   0  0  0  0  0  0  0  0  0  0  0  0
   -4.0440   -4.2660   -0.4300 O   0  0  0  0  0  0  0  0  0  0  0  0
   -4.6450   -2.1410    0.5620 C   0  0  0  0  0  0  0  0  0  0  0  0
    2.5960   -2.9240   -4.3010 O   0  0  0  0  0  0  0  0  0  0  0  0
   -5.6240   -1.9780   -2.4200 O   0  0  0  0  0  0  0  0  0  0  0  0
   -6.0430   -2.6200    0.9100 C   0  0  0  0  0  0  0  0  0  0  0  0
    6.4050   -4.6050    0.6840 C   0  0  0  0  0  0  0  0  0  0  0  0
   -3.6090    3.0850   -1.8740 C   0  0  0  0  0  0  0  0  0  0  0  0
   -4.3810    3.1200   -0.7040 C   0  0  0  0  0  0  0  0  0  0  0  0
   -4.9330    4.3400   -0.2910 C   0  0  0  0  0  0  0  0  0  0  0  0
   -4.7130    5.5100   -1.0270 C   0  0  0  0  0  0  0  0  0  0  0  0
   -3.9140    5.4590   -2.1770 C   0  0  0  0  0  0  0  0  0  0  0  0
   -3.3630    4.2480   -2.6160 C   0  0  0  0  0  0  0  0  0  0  0  0
   -4.5670    1.8660    0.1100 C   0  0  0  0  0  0  0  0  0  0  0  0
   -5.2660    6.8210   -0.5490 C   0  0  0  0  0  0  0  0  0  0  0  0
   -2.4800    4.1920   -3.8360 C   0  0  0  0  0  0  0  0  0  0  0  0
   -0.7290    4.3470   -3.4020 S   0  0  0  0  0  0  0  0  0  0  0  0
    2.8160   -0.0750   -3.4690 H   0  0  0  0  0  0  0  0  0  0  0  0
    4.9250    0.5850    0.1770 H   0  0  0  0  0  0  0  0  0  0  0  0
    0.2840    3.1630    5.1250 H   0  0  0  0  0  0  0  0  0  0  0  0
    4.5840    1.9690    2.2690 H   0  0  0  0  0  0  0  0  0  0  0  0
    4.5680    0.1930    2.3140 H   0  0  0  0  0  0  0  0  0  0  0  0
    4.7400    1.4010    4.5100 H   0  0  0  0  0  0  0  0  0  0  0  0
    3.2190    3.1610    4.2310 H   0  0  0  0  0  0  0  0  0  0  0  0
    1.3800   -0.4530    4.7230 H   0  0  0  0  0  0  0  0  0  0  0  0
    2.2460   -1.9860    4.8240 H   0  0  0  0  0  0  0  0  0  0  0  0
    2.1290   -1.1760    3.2590 H   0  0  0  0  0  0  0  0  0  0  0  0
   -3.2940    4.8190    2.8370 H   0  0  0  0  0  0  0  0  0  0  0  0
   -1.5690    5.1920    2.5470 H   0  0  0  0  0  0  0  0  0  0  0  0
   -2.3200    5.6780    4.0640 H   0  0  0  0  0  0  0  0  0  0  0  0
    0.6350   -0.0560   -3.3440 H   0  0  0  0  0  0  0  0  0  0  0  0
    3.5300    2.1140    6.5210 H   0  0  0  0  0  0  0  0  0  0  0  0
    2.0990    3.1150    6.3470 H   0  0  0  0  0  0  0  0  0  0  0  0
    1.9380    1.3520    6.3340 H   0  0  0  0  0  0  0  0  0  0  0  0
    5.1900   -0.6040   -3.3190 H   0  0  0  0  0  0  0  0  0  0  0  0
    6.0110   -0.5920   -1.7580 H   0  0  0  0  0  0  0  0  0  0  0  0
    5.7630    0.9380   -2.6420 H   0  0  0  0  0  0  0  0  0  0  0  0
   -1.8320    2.1040    0.1240 H   0  0  0  0  0  0  0  0  0  0  0  0
   -2.1190    3.5650    0.9910 H   0  0  0  0  0  0  0  0  0  0  0  0
    6.5490   -4.4210   -1.9970 H   0  0  0  0  0  0  0  0  0  0  0  0
    2.1670   -4.0710    3.0930 H   0  0  0  0  0  0  0  0  0  0  0  0
    4.4100   -4.4100    2.3190 H   0  0  0  0  0  0  0  0  0  0  0  0
    4.8050   -3.9080   -3.5750 H   0  0  0  0  0  0  0  0  0  0  0  0
    0.8810   -2.6430    1.5470 H   0  0  0  0  0  0  0  0  0  0  0  0
    0.5060   -4.3860    1.2420 H   0  0  0  0  0  0  0  0  0  0  0  0
   -4.5560   -1.3690   -4.6570 H   0  0  0  0  0  0  0  0  0  0  0  0
    0.6980   -3.6220   -5.3690 H   0  0  0  0  0  0  0  0  0  0  0  0
    0.7000   -1.8260   -5.3740 H   0  0  0  0  0  0  0  0  0  0  0  0
   -1.5640   -3.7680   -5.9990 H   0  0  0  0  0  0  0  0  0  0  0  0
   -0.7730   -2.6360   -7.0980 H   0  0  0  0  0  0  0  0  0  0  0  0
   -2.9490   -1.7520   -6.3430 H   0  0  0  0  0  0  0  0  0  0  0  0
   -1.6480   -0.7060   -5.7530 H   0  0  0  0  0  0  0  0  0  0  0  0
   -2.2170   -0.6370    1.1270 H   0  0  0  0  0  0  0  0  0  0  0  0
   -0.6000   -0.8920    1.7780 H   0  0  0  0  0  0  0  0  0  0  0  0
   -4.7000   -1.1200    0.1810 H   0  0  0  0  0  0  0  0  0  0  0  0
   -4.0260   -2.1320    1.4640 H   0  0  0  0  0  0  0  0  0  0  0  0
    3.4940   -2.5570   -4.2680 H   0  0  0  0  0  0  0  0  0  0  0  0
   -5.9040   -2.9150   -2.3380 H   0  0  0  0  0  0  0  0  0  0  0  0
   -6.5190   -1.9270    1.6090 H   0  0  0  0  0  0  0  0  0  0  0  0
   -6.0160   -3.6110    1.3760 H   0  0  0  0  0  0  0  0  0  0  0  0
   -6.6730   -2.6920    0.0190 H   0  0  0  0  0  0  0  0  0  0  0  0
    7.3590   -4.7020    0.1530 H   0  0  0  0  0  0  0  0  0  0  0  0
    6.5340   -3.8140    1.4310 H   0  0  0  0  0  0  0  0  0  0  0  0
    6.2100   -5.5590    1.1830 H   0  0  0  0  0  0  0  0  0  0  0  0
   -3.1610    2.1440   -2.1960 H   0  0  0  0  0  0  0  0  0  0  0  0
   -5.5270    4.3810    0.6230 H   0  0  0  0  0  0  0  0  0  0  0  0
   -3.7100    6.3740   -2.7300 H   0  0  0  0  0  0  0  0  0  0  0  0
   -5.6300    1.7330    0.3350 H   0  0  0  0  0  0  0  0  0  0  0  0
   -4.2670    0.9920   -0.4780 H   0  0  0  0  0  0  0  0  0  0  0  0
   -6.2220    6.6780   -0.0320 H   0  0  0  0  0  0  0  0  0  0  0  0
   -5.4520    7.4940   -1.3930 H   0  0  0  0  0  0  0  0  0  0  0  0
   -4.5590    7.2990    0.1360 H   0  0  0  0  0  0  0  0  0  0  0  0
   -2.7470    4.9870   -4.5410 H   0  0  0  0  0  0  0  0  0  0  0  0
   -2.6330    3.2420   -4.3610 H   0  0  0  0  0  0  0  0  0  0  0  0
   -0.2460    4.0490   -4.6200 H   0  0  0  0  0  0  0  0  0  0  0  0
  1  2  1  0
  1  5  2  0
  1 11  1  0
  2  6  2  0
  2 14  1  0
  3  4  2  0
  3  7  1  0
  3 27  1  0
  4  8  1  0
  4 74  1  0
  5  9  1  0
  5 15  1  0
  6 10  1  0
  6 24  1  0
  7  9  2  0
  7 75  1  0
  8 10  2  0
  8 25  1  0
  9 10  1  0
 11 12  2  0
 11 17  1  0
 12 13  1  0
 12 76  1  0
 13 14  2  0
 13 21  1  0
 14 28  1  0
 15 16  1  0
 15 77  1  0
 15 78  1  0
 16 17  1  0
 16 18  1  0
 16 79  1  1
 17 26  1  0
 17 80  1  6
 18 19  2  0
 18 20  1  0
 20 81  1  0
 20 82  1  0
 20 83  1  0
 21 22  2  0
 21 23  1  0
 23 84  1  0
 23 85  1  0
 23 86  1  0
 24 56  1  0
 25 87  1  0
 26 88  1  0
 26 89  1  0
 26 90  1  0
 27 91  1  0
 27 92  1  0
 27 93  1  0
 28 29  1  0
 28 94  1  0
 28 95  1  0
 29 70  1  0
 30 31  1  0
 30 34  2  0
 30 47  1  0
 31 38  2  0
 31 50  1  0
 32 35  2  0
 32 37  1  0
 32 96  1  0
 33 36  2  0
 33 39  1  0
 33 97  1  0
 34 42  1  0
 34 51  1  0
 35 41  1  0
 35 63  1  0
 36 41  1  0
 36 98  1  0
 37 43  2  0
 37 99  1  0
 38 44  1  0
 38 54  1  0
 39 45  1  0
 39100  1  0
 39101  1  0
 40 42  2  0
 40 43  1  0
 40 60  1  0
 41 46  2  0
 42 44  1  0
 43 46  1  0
 44 45  2  0
 45 46  1  0
 47 48  2  0
 47 53  1  0
 48 49  1  0
 48102  1  0
 49 50  2  0
 49 61  1  0
 50 57  1  0
 51 52  1  0
 51103  1  0
 51104  1  0
 52 53  1  0
 52105  1  0
 52106  1  0
 53107  1  0
 53108  1  0
 54 55  2  0
 54 56  1  0
 56109  1  0
 56110  1  0
 57 58  2  0
 57 59  1  0
 59 62  1  0
 59111  1  0
 59112  1  0
 60113  1  0
 61114  1  0
 62115  1  0
 62116  1  0
 62117  1  0
 63118  1  0
 63119  1  0
 63120  1  0
 64 65  2  0
 64 69  1  0
 64121  1  0
 65 66  1  0
 65 70  1  0
 66 67  2  0
 66122  1  0
 67 68  1  0
 67 71  1  0
 68 69  2  0
 68123  1  0
 69 72  1  0
 70124  1  0
 70125  1  0
 71126  1  0
 71127  1  0
 71128  1  0
 72 73  1  0
 72129  1  0
 72130  1  0
 73131  1  0
M  END
