
     RDKit          3D

149165  0  0  0  0  0  0  0  0999 V2000
    4.2520    3.5690    7.1710 C   0  0  0  0  0  0  0  0  0  0  0  0
    5.1990    2.8110    6.4380 C   0  0  0  0  0  0  0  0  0  0  0  0
    0.6240    0.4010    5.8660 C   0  0  0  0  0  0  0  0  0  0  0  0
    1.4560   -0.1570    4.8920 C   0  0  0  0  0  0  0  0  0  0  0  0
    2.9050    3.0970    7.2760 C   0  0  0  0  0  0  0  0  0  0  0  0
    4.7020    1.6940    5.6930 C   0  0  0  0  0  0  0  0  0  0  0  0
    1.1150    1.4490    6.6630 C   0  0  0  0  0  0  0  0  0  0  0  0
    2.7930    0.2940    4.8400 C   0  0  0  0  0  0  0  0  0  0  0  0
    2.4350    1.9640    6.5520 C   0  0  0  0  0  0  0  0  0  0  0  0
    3.3200    1.3160    5.6780 C   0  0  0  0  0  0  0  0  0  0  0  0
    4.6490    4.7790    7.8130 C   0  0  0  0  0  0  0  0  0  0  0  0
    5.9950    5.2020    7.7850 C   0  0  0  0  0  0  0  0  0  0  0  0
    6.9650    4.4280    7.0780 C   0  0  0  0  0  0  0  0  0  0  0  0
    6.5930    3.1940    6.4610 C   0  0  0  0  0  0  0  0  0  0  0  0
   -0.6820   -0.0930    6.0400 C   0  0  0  0  0  0  0  0  0  0  0  0
   -1.1680   -1.1350    5.2520 C   0  0  0  0  0  0  0  0  0  0  0  0
   -0.3620   -1.6740    4.2590 C   0  0  0  0  0  0  0  0  0  0  0  0
    0.9220   -1.1670    4.0550 C   0  0  0  0  0  0  0  0  0  0  0  0
    3.6960    5.6160    8.4550 C   0  0  0  0  0  0  0  0  0  0  0  0
    4.0600    6.8120    9.0900 C   0  0  0  0  0  0  0  0  0  0  0  0
    5.3810    7.2010    9.1060 C   0  0  0  0  0  0  0  0  0  0  0  0
    6.3260    6.4110    8.4590 C   0  0  0  0  0  0  0  0  0  0  0  0
    1.9980    3.7980    8.2770 C   0  0  0  0  0  0  0  0  0  0  0  0
    2.2350    5.2930    8.3440 C   0  0  0  0  0  0  0  0  0  0  0  0
    5.6870    0.8910    4.8750 C   0  0  0  0  0  0  0  0  0  0  0  0
    7.0150    0.8350    5.5910 C   0  0  0  0  0  0  0  0  0  0  0  0
    7.6350    2.2360    5.8170 C   0  0  2  0  0  0  0  0  0  0  0  0
    1.6370   -1.7440    3.0340 O   0  0  0  0  0  0  0  0  0  0  0  0
    8.8440    1.9300    6.7430 C   0  0  0  0  0  0  0  0  0  0  0  0
    8.1080    2.7740    4.4500 C   0  0  0  0  0  0  0  0  0  0  0  0
    8.3610    5.0130    7.0010 C   0  0  0  0  0  0  0  0  0  0  0  0
   -0.3150    1.1430   -3.5650 C   0  0  0  0  0  0  0  0  0  0  0  0
    0.5500    1.4720   -2.4810 C   0  0  0  0  0  0  0  0  0  0  0  0
   -2.0370   -1.9570   -0.5270 C   0  0  0  0  0  0  0  0  0  0  0  0
   -1.3230    0.1430   -3.4150 C   0  0  0  0  0  0  0  0  0  0  0  0
    0.4030    0.7210   -1.2780 C   0  0  0  0  0  0  0  0  0  0  0  0
   -2.3550   -1.5590   -1.7720 C   0  0  0  0  0  0  0  0  0  0  0  0
   -0.7890   -1.2510   -0.0030 C   0  0  2  0  0  0  0  0  0  0  0  0
   -1.4130   -0.5420   -2.2040 C   0  0  0  0  0  0  0  0  0  0  0  0
   -0.5280   -0.2990   -1.1600 C   0  0  0  0  0  0  0  0  0  0  0  0
   -0.1840    1.8100   -4.8080 C   0  0  0  0  0  0  0  0  0  0  0  0
    0.8120    2.8040   -5.0000 C   0  0  0  0  0  0  0  0  0  0  0  0
    1.6700    3.1950   -3.8920 C   0  0  0  0  0  0  0  0  0  0  0  0
    1.5180    2.5230   -2.6400 C   0  0  0  0  0  0  0  0  0  0  0  0
   -1.0710    1.4580   -5.8750 C   0  0  0  0  0  0  0  0  0  0  0  0
   -0.9660    2.0650   -7.1250 C   0  0  0  0  0  0  0  0  0  0  0  0
    0.0130    3.0090   -7.3460 C   0  0  0  0  0  0  0  0  0  0  0  0
    0.8730    3.3660   -6.3060 C   0  0  0  0  0  0  0  0  0  0  0  0
   -2.0640    0.5010   -5.6930 C   0  0  0  0  0  0  0  0  0  0  0  0
   -2.1910   -0.1500   -4.4760 C   0  0  0  0  0  0  0  0  0  0  0  0
    2.6660    4.2330   -3.9340 C   0  0  0  0  0  0  0  0  0  0  0  0
    3.4550    4.6010   -2.8390 C   0  0  0  0  0  0  0  0  0  0  0  0
    3.2910    3.9450   -1.6430 C   0  0  0  0  0  0  0  0  0  0  0  0
    2.3450    2.9290   -1.5520 C   0  0  0  0  0  0  0  0  0  0  0  0
    2.8950    4.9500   -5.0830 O   0  0  0  0  0  0  0  0  0  0  0  0
    0.3500   -2.2650    0.2440 C   0  0  0  0  0  0  0  0  0  0  0  0
    1.7260   -1.6950    0.6230 C   0  0  0  0  0  0  0  0  0  0  0  0
   -2.8670   -2.9880    0.1630 C   0  0  0  0  0  0  0  0  0  0  0  0
    1.7420   -0.8640    1.9050 C   0  0  0  0  0  0  0  0  0  0  0  0
   -6.0790   -4.1400   -3.2060 C   0  0  0  0  0  0  0  0  0  0  0  0
   -4.9550   -4.8390   -3.7460 C   0  0  0  0  0  0  0  0  0  0  0  0
   -6.2220   -2.4540   -7.5570 C   0  0  0  0  0  0  0  0  0  0  0  0
   -6.8270   -3.3210   -4.0960 C   0  0  0  0  0  0  0  0  0  0  0  0
   -4.6080   -4.7060   -5.1070 C   0  0  0  0  0  0  0  0  0  0  0  0
   -6.9860   -2.3200   -6.4550 C   0  0  0  0  0  0  0  0  0  0  0  0
   -5.0960   -3.4680   -7.3500 C   0  0  1  0  0  0  0  0  0  0  0  0
   -6.4380   -3.1790   -5.4190 C   0  0  0  0  0  0  0  0  0  0  0  0
   -5.3400   -3.8630   -5.9190 C   0  0  0  0  0  0  0  0  0  0  0  0
   -6.3570   -4.2320   -1.7930 C   0  0  0  0  0  0  0  0  0  0  0  0
   -5.4650   -4.9350   -0.9450 C   0  0  0  0  0  0  0  0  0  0  0  0
   -4.4130   -5.6700   -1.5280 C   0  0  0  0  0  0  0  0  0  0  0  0
   -4.1750   -5.6300   -2.8970 C   0  0  0  0  0  0  0  0  0  0  0  0
   -7.4590   -3.6010   -1.1720 C   0  0  0  0  0  0  0  0  0  0  0  0
   -7.5960   -3.6050    0.2050 C   0  0  0  0  0  0  0  0  0  0  0  0
   -6.6880   -4.1390    1.0360 N   0  0  0  0  0  0  0  0  0  0  0  0
   -5.6480   -4.7850    0.4530 C   0  0  0  0  0  0  0  0  0  0  0  0
   -4.5240   -5.0810    1.4030 C   0  0  0  0  0  0  0  0  0  0  0  0
   -3.9790   -6.1810    1.4270 O   0  0  0  0  0  0  0  0  0  0  0  0
   -4.0290   -3.9090    2.2540 C   0  0  0  0  0  0  0  0  0  0  0  0
   -3.1250   -6.3450   -3.4120 O   0  0  0  0  0  0  0  0  0  0  0  0
   -5.1600   -4.6510   -8.3050 C   0  0  0  0  0  0  0  0  0  0  0  0
   -2.7980   -3.1790    1.6770 C   0  0  0  0  0  0  0  0  0  0  0  0
   -6.3280   -1.7210   -8.8620 C   0  0  0  0  0  0  0  0  0  0  0  0
   -7.3360   -0.5790   -8.8940 C   0  0  0  0  0  0  0  0  0  0  0  0
    0.4310    1.8620    7.3960 H   0  0  0  0  0  0  0  0  0  0  0  0
    3.4440   -0.1880    4.1190 H   0  0  0  0  0  0  0  0  0  0  0  0
   -1.3260    0.3200    6.8130 H   0  0  0  0  0  0  0  0  0  0  0  0
   -2.1620   -1.5330    5.4260 H   0  0  0  0  0  0  0  0  0  0  0  0
   -0.7220   -2.4940    3.6470 H   0  0  0  0  0  0  0  0  0  0  0  0
    3.3080    7.4440    9.5560 H   0  0  0  0  0  0  0  0  0  0  0  0
    5.6810    8.1260    9.5910 H   0  0  0  0  0  0  0  0  0  0  0  0
    7.3530    6.7720    8.4890 H   0  0  0  0  0  0  0  0  0  0  0  0
    2.1690    3.3390    9.2580 H   0  0  0  0  0  0  0  0  0  0  0  0
    0.9400    3.6750    8.0360 H   0  0  0  0  0  0  0  0  0  0  0  0
    1.6800    5.7010    9.1970 H   0  0  0  0  0  0  0  0  0  0  0  0
    1.8480    5.7760    7.4350 H   0  0  0  0  0  0  0  0  0  0  0  0
    5.3700   -0.1520    4.7740 H   0  0  0  0  0  0  0  0  0  0  0  0
    5.7650    1.3160    3.8700 H   0  0  0  0  0  0  0  0  0  0  0  0
    6.8690    0.3250    6.5540 H   0  0  0  0  0  0  0  0  0  0  0  0
    7.7020    0.2000    5.0140 H   0  0  0  0  0  0  0  0  0  0  0  0
    9.4300    1.0880    6.3490 H   0  0  0  0  0  0  0  0  0  0  0  0
    8.5020    1.6510    7.7470 H   0  0  0  0  0  0  0  0  0  0  0  0
    9.5570    2.7420    6.8590 H   0  0  0  0  0  0  0  0  0  0  0  0
    8.7560    2.0470    3.9460 H   0  0  0  0  0  0  0  0  0  0  0  0
    7.2630    2.9870    3.7860 H   0  0  0  0  0  0  0  0  0  0  0  0
    8.6780    3.7020    4.5210 H   0  0  0  0  0  0  0  0  0  0  0  0
    9.0250    4.5320    6.2950 H   0  0  0  0  0  0  0  0  0  0  0  0
    8.3150    6.0480    6.6430 H   0  0  0  0  0  0  0  0  0  0  0  0
    8.8390    4.9890    7.9850 H   0  0  0  0  0  0  0  0  0  0  0  0
    1.0280    0.9160   -0.4160 H   0  0  0  0  0  0  0  0  0  0  0  0
   -3.1810   -1.9210   -2.3640 H   0  0  0  0  0  0  0  0  0  0  0  0
   -1.0390   -0.6830    0.9000 H   0  0  0  0  0  0  0  0  0  0  0  0
   -1.6350    1.7960   -7.9390 H   0  0  0  0  0  0  0  0  0  0  0  0
    0.1170    3.4770   -8.3220 H   0  0  0  0  0  0  0  0  0  0  0  0
    1.6160    4.1110   -6.5640 H   0  0  0  0  0  0  0  0  0  0  0  0
   -2.7480    0.2390   -6.4970 H   0  0  0  0  0  0  0  0  0  0  0  0
   -2.9690   -0.9010   -4.3800 H   0  0  0  0  0  0  0  0  0  0  0  0
    4.1970    5.3890   -2.9140 H   0  0  0  0  0  0  0  0  0  0  0  0
    3.8850    4.2190   -0.7740 H   0  0  0  0  0  0  0  0  0  0  0  0
    2.2610    2.4650   -0.5740 H   0  0  0  0  0  0  0  0  0  0  0  0
    3.3340    5.7880   -4.8560 H   0  0  0  0  0  0  0  0  0  0  0  0
    0.0450   -2.9560    1.0370 H   0  0  0  0  0  0  0  0  0  0  0  0
    0.4890   -2.8840   -0.6540 H   0  0  0  0  0  0  0  0  0  0  0  0
    2.4110   -2.5440    0.7470 H   0  0  0  0  0  0  0  0  0  0  0  0
    2.1250   -1.1040   -0.2060 H   0  0  0  0  0  0  0  0  0  0  0  0
   -3.9060   -2.7490   -0.0890 H   0  0  0  0  0  0  0  0  0  0  0  0
   -2.6170   -3.9500   -0.2970 H   0  0  0  0  0  0  0  0  0  0  0  0
    0.9580   -0.0980    1.8910 H   0  0  0  0  0  0  0  0  0  0  0  0
    2.7090   -0.3510    1.9650 H   0  0  0  0  0  0  0  0  0  0  0  0
   -7.6760   -2.7410   -3.7560 H   0  0  0  0  0  0  0  0  0  0  0  0
   -3.7390   -5.2200   -5.5090 H   0  0  0  0  0  0  0  0  0  0  0  0
   -7.8350   -1.6710   -6.3140 H   0  0  0  0  0  0  0  0  0  0  0  0
   -4.1270   -2.9580   -7.4260 H   0  0  0  0  0  0  0  0  0  0  0  0
   -3.7500   -6.2620   -0.9030 H   0  0  0  0  0  0  0  0  0  0  0  0
   -8.2260   -3.0920   -1.7460 H   0  0  0  0  0  0  0  0  0  0  0  0
   -8.4470   -3.1260    0.6850 H   0  0  0  0  0  0  0  0  0  0  0  0
   -3.7950   -4.3000    3.2500 H   0  0  0  0  0  0  0  0  0  0  0  0
   -4.8380   -3.1860    2.3990 H   0  0  0  0  0  0  0  0  0  0  0  0
   -2.7100   -6.8670   -2.7030 H   0  0  0  0  0  0  0  0  0  0  0  0
   -4.4010   -5.4010   -8.0580 H   0  0  0  0  0  0  0  0  0  0  0  0
   -6.1380   -5.1480   -8.2790 H   0  0  0  0  0  0  0  0  0  0  0  0
   -4.9760   -4.3280   -9.3370 H   0  0  0  0  0  0  0  0  0  0  0  0
   -2.7030   -2.2120    2.1820 H   0  0  0  0  0  0  0  0  0  0  0  0
   -1.9030   -3.7630    1.9220 H   0  0  0  0  0  0  0  0  0  0  0  0
   -6.5840   -2.4330   -9.6550 H   0  0  0  0  0  0  0  0  0  0  0  0
   -5.3420   -1.3070   -9.1080 H   0  0  0  0  0  0  0  0  0  0  0  0
   -7.1010    0.1810   -8.1420 H   0  0  0  0  0  0  0  0  0  0  0  0
   -8.3550   -0.9400   -8.7140 H   0  0  0  0  0  0  0  0  0  0  0  0
   -7.3240   -0.0940   -9.8750 H   0  0  0  0  0  0  0  0  0  0  0  0
  1  2  2  0
  1  5  1  0
  1 11  1  0
  2  6  1  0
  2 14  1  0
  3  4  1  0
  3  7  2  0
  3 15  1  0
  4  8  2  0
  4 18  1  0
  5  9  2  0
  5 23  1  0
  6 10  2  0
  6 25  1  0
  7  9  1  0
  7 85  1  0
  8 10  1  0
  8 86  1  0
  9 10  1  0
 11 12  2  0
 11 19  1  0
 12 13  1  0
 12 22  1  0
 13 14  2  0
 13 31  1  0
 14 27  1  0
 15 16  2  0
 15 87  1  0
 16 17  1  0
 16 88  1  0
 17 18  2  0
 17 89  1  0
 18 28  1  0
 19 20  2  0
 19 24  1  0
 20 21  1  0
 20 90  1  0
 21 22  2  0
 21 91  1  0
 22 92  1  0
 23 24  1  0
 23 93  1  0
 23 94  1  0
 24 95  1  0
 24 96  1  0
 25 26  1  0
 25 97  1  0
 25 98  1  0
 26 27  1  0
 26 99  1  0
 26100  1  0
 27 29  1  1
 27 30  1  0
 28 59  1  0
 29101  1  0
 29102  1  0
 29103  1  0
 30104  1  0
 30105  1  0
 30106  1  0
 31107  1  0
 31108  1  0
 31109  1  0
 32 33  1  0
 32 35  2  0
 32 41  1  0
 33 36  2  0
 33 44  1  0
 34 37  2  0
 34 38  1  0
 34 58  1  0
 35 39  1  0
 35 50  1  0
 36 40  1  0
 36110  1  0
 37 39  1  0
 37111  1  0
 38 40  1  0
 38 56  1  0
 38112  1  1
 39 40  2  0
 41 42  2  0
 41 45  1  0
 42 43  1  0
 42 48  1  0
 43 44  2  0
 43 51  1  0
 44 54  1  0
 45 46  2  0
 45 49  1  0
 46 47  1  0
 46113  1  0
 47 48  2  0
 47114  1  0
 48115  1  0
 49 50  2  0
 49116  1  0
 50117  1  0
 51 52  2  0
 51 55  1  0
 52 53  1  0
 52118  1  0
 53 54  2  0
 53119  1  0
 54120  1  0
 55121  1  0
 56 57  1  0
 56122  1  0
 56123  1  0
 57 59  1  0
 57124  1  0
 57125  1  0
 58 82  1  0
 58126  1  0
 58127  1  0
 59128  1  0
 59129  1  0
 60 61  2  0
 60 63  1  0
 60 69  1  0
 61 64  1  0
 61 72  1  0
 62 65  2  0
 62 66  1  0
 62 83  1  0
 63 67  2  0
 63130  1  0
 64 68  2  0
 64131  1  0
 65 67  1  0
 65132  1  0
 66 68  1  0
 66 81  1  0
 66133  1  1
 67 68  1  0
 69 70  2  0
 69 73  1  0
 70 71  1  0
 70 76  1  0
 71 72  2  0
 71134  1  0
 72 80  1  0
 73 74  2  0
 73135  1  0
 74 75  1  0
 74136  1  0
 75 76  2  0
 76 77  1  0
 77 78  2  0
 77 79  1  0
 79 82  1  0
 79137  1  0
 79138  1  0
 80139  1  0
 81140  1  0
 81141  1  0
 81142  1  0
 82143  1  0
 82144  1  0
 83 84  1  0
 83145  1  0
 83146  1  0
 84147  1  0
 84148  1  0
 84149  1  0
M  END
