18

C      47.830300000000001     48.161799999999992     48.696799999999996
C      48.349800000000002     47.898200000000003     47.298099999999998
C      46.835400000000007     49.207900000000009     48.578600000000002
C      47.781900000000007     48.188200000000009     46.056600000000003
C      48.522700000000000     47.961600000000004     49.834499999999998
C      49.563700000000011     46.974699999999999     47.083300000000001
C      46.049400000000006     49.400000000000006     47.342900000000000
C      46.513000000000005     48.971500000000006     46.081000000000003
C      49.558999999999997     47.093600000000009     49.774000000000008
C      50.145499999999998     46.824700000000007     48.429299999999998
H      46.147000000000006     49.722000000000008     49.322299999999991
H      48.348300000000009     47.876900000000006     45.118699999999997
H      48.357600000000005     48.393300000000011     50.734299999999998
H      49.779899999999998     47.029800000000009     46.009500000000003
H      45.082999999999998     49.830500000000001     47.542499999999997
H      45.727699999999999     49.230300000000000     45.329200000000000
H      49.996099999999998     47.043500000000009     50.881300000000003
H      50.917000000000002     46.169499999999999     48.351100000000002
