5

C      47.435124999999992     47.510299999999994     47.389699999999998
C      48.157854999999998     48.359300000000005     48.202200000000005
H      48.990195000000000     47.867800000000003     49.153199999999998
H      48.036564999999996     49.402500000000003     48.038800000000002
O      47.009805000000000     46.597499999999997     46.846800000000002
