18

C      48.855400000000003     47.899449999999995     48.586499999999994
C      48.838300000000011     47.230549999999994     47.299400000000006
C      49.158800000000006     49.290849999999992     48.765600000000006
C      49.460100000000004     48.107050000000001     46.230800000000002
C      48.102300000000007     47.240150000000000     49.670000000000002
C      47.738300000000002     46.256950000000003     46.988000000000000
C      49.599499999999999     50.085349999999991     47.618799999999993
C      49.532600000000009     49.637749999999997     46.200000000000003
C      47.213200000000008     46.148550000000000     49.342500000000001
C      46.790100000000002     45.651049999999998     47.991799999999998
H      48.929200000000002     49.659949999999995     49.616200000000006
H      49.081099999999999     47.449849999999998     45.263400000000004
H      48.100200000000008     47.370249999999999     50.736599999999996
H      47.646400000000007     45.998049999999992     46.092200000000005
H      49.611000000000011     51.045749999999998     48.159199999999998
H      49.983100000000000     50.134249999999994     45.451800000000006
H      46.819400000000009     45.737049999999996     50.210899999999995
H      46.016900000000000     44.954250000000002     47.884200000000007
