32

C      48.930099999999996     49.428221999999984     48.693299999999994
C      48.169799999999995     45.149021999999988     46.810099999999998
C      49.778800000000004     48.146321999999984     48.484900000000003
C      49.639899999999997     45.728021999999996     47.491599999999998
C      47.533100000000005     49.628621999999993     48.730300000000007
C      46.768199999999993     45.283721999999997     46.663599999999995
C      45.409700000000001     48.811121999999997     47.817599999999999
C      45.366799999999998     47.628921999999989     46.966299999999997
C      49.091899999999995     47.058321999999990     47.944600000000001
C      46.802199999999999     48.626721999999987     48.082999999999998
C      46.546700000000001     46.651821999999996     46.977699999999999
C      47.588099999999997     47.401621999999989     47.714900000000000
C      50.881399999999999     45.362321999999992     48.210799999999999
C      52.107699999999994     46.174721999999988     48.309500000000000
C      43.765799999999999     47.403021999999993     47.020499999999998
C      44.603600000000000     50.135521999999995     48.315199999999997
C      50.282699999999991     49.579821999999993     48.794599999999996
C      49.774099999999990     50.876721999999987     48.213799999999999
H      47.177199999999999     50.551521999999991     49.510299999999994
H      46.254099999999994     44.559021999999985     46.083500000000001
H      51.019699999999986     44.365021999999996     48.149099999999997
H      43.392299999999992     46.403221999999985     46.880800000000001
H      43.078000000000003     48.151921999999985     46.509300000000003
H      43.430399999999992     47.414821999999987     48.011299999999999
H      44.976299999999995     51.135824499999998     47.759700000000002
H      43.459899999999990     50.021421999999987     48.370399999999997
H      45.143799999999999     50.516221999999985     49.234199999999994
H      50.561999999999998     51.634978000000004     47.983300000000000
H      50.448799999999991     49.517321999999993     49.916499999999999
H      48.852899999999991     51.356220999999991     48.399899999999995
O      52.921999999999997     46.934121999999988     48.604999999999997
O      49.298999999999992     44.758121999999986     46.402099999999997
