18

C      47.821099999999987     47.356799999999993     48.452300000000001
C      48.388500000000001     48.594799999999999     47.705500000000001
C      46.600600000000000     47.716200000000008     49.213700000000003
C      47.751399999999997     49.771899999999995     47.777299999999997
C      48.664499999999997     46.188700000000004     48.253399999999999
C      49.461300000000001     48.562400000000004     46.671199999999999
C      45.928999999999995     49.000300000000003     49.392899999999997
C      46.312999999999995     49.807800000000007     48.338499999999996
C      49.760699999999993     46.111899999999999     47.322199999999995
C      50.021899999999995     47.287100000000002     46.468299999999999
H      46.332099999999997     47.159799999999997     50.200900000000004
H      48.064299999999996     50.756000000000007     47.313500000000005
H      48.361600000000003     45.223099999999995     48.675300000000007
H      49.478600000000000     49.493100000000005     46.120900000000006
H      45.211099999999995     49.169999999999995     50.059200000000004
H      45.731999999999999     50.776900000000005     48.811000000000007
H      50.603299999999997     45.273699999999998     47.274500000000003
H      50.788900000000005     47.103600000000007     45.799099999999996
