18

C      48.554149999999993     47.732799999999990     48.557199999999995
C      47.427750000000003     47.993000000000009     47.699000000000005
C      48.969350000000006     48.437300000000008     49.759700000000002
C      46.503650000000007     49.033100000000005     48.152499999999996
C      49.393850000000000     46.617699999999999     48.078700000000005
C      47.174049999999994     47.342600000000004     46.358899999999998
C      47.997749999999996     49.392200000000003     50.184699999999999
C      46.815349999999995     49.724500000000006     49.324700000000000
C      49.337450000000004     46.250000000000000     46.614899999999999
C      48.178550000000001     46.512500000000003     45.951299999999996
H      49.868350000000007     48.140900000000002     50.298799999999993
H      45.561250000000001     49.219700000000003     47.597200000000001
H      50.438749999999999     47.029200000000003     48.442399999999999
H      46.339849999999998     47.449500000000000     45.757600000000004
H      48.122749999999996     49.953699999999998     51.089800000000004
H      46.164550000000006     50.524000000000001     49.868200000000009
H      50.104250000000008     45.475999999999999     46.000300000000003
H      48.186750000000004     45.976900000000001     44.910199999999996
