145

C      50.753450000000001     46.007900000000006     44.685749999999992
C      54.106649999999995     54.463300000000004     45.361549999999987
C      53.098450000000007     55.104500000000002     46.189250000000001
C      51.836349999999996     46.808600000000013     45.269549999999995
C      49.326650000000008     46.403700000000001     44.711449999999999
C      54.087950000000006     53.121900000000011     44.791549999999994
C      51.965550000000000     54.378600000000006     46.583049999999993
C      51.341649999999994     48.009000000000000     45.979349999999990
C      47.558250000000008     48.341800000000006     45.064750000000004
C      47.179650000000002     49.639600000000002     45.582949999999997
C      48.279650000000004     51.752399999999994     46.636249999999990
C      49.379250000000006     52.528600000000012     46.837049999999991
C      52.311950000000003     51.099400000000003     44.817949999999996
C      48.852750000000007     47.791200000000003     45.070449999999994
C      48.309649999999998     50.378700000000009     46.028449999999999
C      52.875450000000001     52.377600000000001     45.219349999999999
C      51.768450000000001     53.042500000000004     46.015449999999994
C      49.986050000000006     48.603700000000003     45.728149999999999
C      50.624650000000003     52.076200000000000     46.047449999999991
C      50.814450000000008     50.798700000000011     45.381149999999998
C      49.774850000000008     50.035399999999996     45.603650000000002
C      50.600850000000001     54.987099999999998     47.139049999999990
C      49.531550000000003     54.072600000000008     47.357349999999990
C      51.063750000000006     44.609100000000012     44.392849999999996
C      52.587449999999997     44.358000000000004     44.097449999999995
C      53.423350000000006     44.798299999999998     45.187749999999994
C      53.177250000000001     46.174000000000007     45.332049999999988
C      55.160750000000000     55.405000000000001     45.100349999999992
C      55.235450000000007     56.871800000000007     45.104050000000001
C      54.316849999999995     57.388300000000001     46.037749999999988
C      53.092050000000008     56.621300000000005     46.386649999999996
C      51.864449999999998     57.050500000000000     47.244650000000000
C      50.664849999999994     56.337500000000006     47.541049999999991
C      47.473750000000003     44.706999999999994     44.852249999999998
C      48.701650000000008     45.130100000000013     44.224350000000001
C      49.735650000000007     44.065700000000007     44.330749999999995
C      53.108050000000006     45.356999999999999     43.065649999999998
C      48.677450000000007     54.109300000000005     48.482149999999990
C      52.914650000000002     42.898600000000002     43.861249999999998
C      47.648249999999997     45.067400000000006     43.107450000000000
C      49.493550000000006     56.903500000000008     48.467449999999999
C      54.089150000000004     47.241100000000003     45.522549999999995
C      43.065750000000001     40.860100000000003     47.254649999999991
C      42.405450000000009     39.981300000000005     48.235349999999997
C      45.992650000000005     42.637100000000004     50.430749999999996
C      47.306250000000006     45.759400000000014     52.122549999999990
C      43.544550000000008     42.302500000000009     47.393249999999995
C      42.991750000000003     40.327000000000012     49.645949999999992
C      45.190050000000006     43.471500000000006     49.471049999999991
C      45.192150000000005     41.298000000000002     50.596249999999991
C      44.054050000000004     42.696100000000001     48.843649999999997
C      44.120550000000001     41.189300000000003     49.639049999999997
C      42.953049999999998     40.363400000000013     45.851849999999999
C      41.873250000000006     39.368600000000001     45.412250000000000
C      41.404850000000003     38.437200000000004     46.469549999999998
C      41.535750000000000     38.884100000000004     47.895150000000001
C      47.195150000000005     43.399000000000001     50.665149999999997
C      48.150950000000002     47.436400000000006     49.953449999999989
C      48.367349999999995     46.428899999999999     51.235149999999990
C      47.174650000000007     46.789000000000001     50.979649999999992
C      43.129350000000009     41.187700000000007     44.728250000000003
C      42.157950000000007     40.836100000000002     43.582650000000001
C      41.964850000000006     41.503500000000003     42.389049999999997
C      41.502450000000003     39.395800000000008     43.889650000000003
C      44.229549999999996     43.074900000000000     46.435949999999991
C      43.783250000000002     42.615700000000004     44.818449999999991
C      42.253950000000003     39.630800000000008     50.751849999999997
C      41.782250000000005     38.107500000000002     50.112249999999996
C      40.743650000000009     38.413500000000013     49.030349999999999
C      42.503650000000000     42.919499999999999     48.311649999999993
C      46.305450000000008     44.575600000000009     49.119249999999994
C      47.777350000000006     43.881800000000013     49.356249999999989
C      45.416050000000006     40.487400000000008     51.621350000000000
C      48.137850000000007     42.972600000000000     51.719449999999995
C      46.940649999999998     44.358000000000004     51.943549999999995
C      48.215650000000004     46.778900000000007     48.575449999999989
C      48.876049999999999     48.816400000000002     50.107250000000001
C      50.447450000000003     48.890699999999995     49.943749999999994
C      45.988350000000004     43.051000000000002     46.337949999999999
C      46.980950000000007     43.143400000000014     44.973050000000001
C      47.704350000000005     46.239300000000000     53.589849999999991
H      52.827450000000006     44.354600000000005     45.997149999999991
H      54.858950000000000     52.519400000000005     44.204349999999991
H      52.112050000000004     48.290600000000012     46.568049999999999
H      46.596750000000007     47.999600000000001     44.839149999999997
H      46.085349999999998     49.916100000000000     45.599649999999997
H      47.336950000000002     52.055499999999995     47.083149999999989
H      52.775849999999998     50.299599999999998     44.063249999999996
H      54.352849999999997     44.487600000000000     45.562550000000002
H      55.823850000000000     55.174500000000009     44.199649999999998
H      55.967149999999997     57.418999999999997     44.300150000000002
H      54.386550000000007     58.553899999999999     46.319649999999989
H      52.348649999999999     58.144199999999998     47.289949999999990
H      46.735350000000004     45.423900000000003     45.216949999999997
H      49.616949999999996     43.074200000000005     43.867449999999998
H      52.536949999999997     45.020700000000005     42.172749999999994
H      52.242149999999995     42.119000000000014     43.417050000000003
H      53.981150000000000     43.066600000000008     43.676549999999992
H      52.916550000000001     42.373000000000005     44.922950000000000
H      46.894650000000006     45.861100000000008     42.831549999999993
H      48.882650000000005     56.631600000000006     49.291049999999998
H      49.559550000000002     58.014099999999999     48.877649999999988
H      48.269250000000007     56.897199999999998     48.155850000000001
H      53.697150000000001     48.242699999999999     45.366450000000000
H      55.078550000000000     47.128500000000003     45.337949999999992
H      40.533850000000008     37.790900000000008     46.178649999999998
H      40.315150000000010     39.515700000000010     43.775350000000003
H      41.717950000000009     38.610000000000014     42.981150000000000
H      44.099250000000005     44.189499999999995     46.589149999999989
H      42.943350000000002     43.216099999999997     44.477649999999997
H      44.573950000000004     42.923700000000011     44.112650000000002
H      42.642850000000003     39.338200000000001     51.722349999999992
H      41.277950000000004     40.088899999999995     51.099749999999993
H      42.555350000000004     37.446100000000001     50.127549999999992
H      41.213750000000005     37.677800000000005     50.923149999999993
H      40.115850000000002     39.372200000000007     49.212249999999997
H      40.032850000000003     37.578299999999999     48.556149999999988
H      42.380450000000003     43.979900000000001     48.234049999999996
H      41.542149999999999     42.413399999999996     48.816849999999988
H      46.621250000000003     44.980000000000004     48.237849999999995
H      46.238750000000003     45.493600000000001     49.652650000000001
H      48.627650000000003     44.482700000000008     49.657950000000000
H      47.594950000000004     43.089400000000012     48.530949999999990
H      46.431250000000006     40.597399999999993     52.252449999999996
H      44.743050000000004     39.684000000000012     51.701349999999991
H      49.315650000000005     43.445100000000011     51.638050000000000
H      48.165650000000007     42.385800000000003     52.588650000000001
H      46.608850000000004     43.805400000000006     52.788950000000000
H      48.660350000000001     49.118600000000001     51.163949999999993
H      48.225250000000003     49.482600000000005     49.617749999999994
H      50.731250000000003     49.696299999999994     50.608649999999997
H      50.610550000000003     49.098799999999997     48.968549999999993
H      50.995550000000001     47.933899999999994     50.262850000000000
H      46.282450000000004     41.997800000000012     46.468249999999998
H      46.418850000000006     43.863500000000002     46.952249999999992
H      47.899150000000006     42.497400000000013     45.148849999999996
H      46.611550000000001     42.648399999999995     43.967849999999999
H      48.634750000000004     45.834699999999998     53.138249999999999
H      47.556250000000006     47.274700000000010     53.463449999999995
H      47.267450000000004     45.711399999999998     54.495550000000001
H      47.714750000000002     44.258700000000005     42.528549999999996
O      54.050449999999998     46.207400000000007     43.133249999999990
O      48.044550000000008     54.080300000000008     49.408650000000002
O      48.543850000000006     46.387600000000006     47.666550000000001
O      41.868350000000000     42.109600000000000     41.504449999999999
