5

C      48.028999999999989     47.754750000000001     47.854899999999994
H      48.957899999999995     47.156949999999995     47.372799999999998
H      48.201099999999997     48.418050000000008     48.662700000000001
H      47.042100000000005     47.276849999999996     47.700800000000001
H      48.294899999999998     48.843050000000005     47.337299999999999
