54

C      50.115499999999997     48.182424999999988     45.918949999999995
C      50.155499999999989     49.622524999999996     46.162250000000000
C      45.428100000000001     44.254125000000002     51.106450000000002
C      47.197999999999993     51.270224999999996     51.261150000000008
C      49.648499999999999     47.141024999999999     46.920550000000013
C      45.051499999999990     45.122725000000003     52.042149999999999
C      46.671199999999999     50.122325000000004     52.156050000000000
C      49.630300000000005     49.875225000000000     47.561550000000004
C      48.159300000000002     50.614525000000000     50.158250000000002
C      45.835200000000000     47.751925000000000     52.284750000000010
C      47.909099999999995     46.824124999999995     48.386550000000000
C      45.871600000000001     46.419825000000003     51.702650000000006
C      48.969700000000003     47.612125000000006     48.001150000000003
C      46.705699999999993     48.732624999999999     51.787850000000013
C      49.147300000000001     48.878625000000000     48.506250000000001
C      46.772499999999994     45.875225000000000     50.704750000000004
C      48.357600000000005     49.225825000000000     49.888950000000001
C      47.537999999999997     46.962325000000007     49.993450000000003
C      47.658999999999992     48.184525000000008     50.692450000000001
C      49.382099999999994     51.124525000000006     48.015550000000005
C      48.564499999999995     51.516625000000005     49.120250000000006
C      50.868600000000001     47.877425000000002     44.681550000000001
C      51.548500000000004     48.841324999999998     43.727750000000000
C      49.889200000000002     48.352325000000008     43.377750000000006
C      50.613500000000002     50.855525000000000     44.983050000000006
C      50.636600000000001     51.929325000000006     46.033650000000002
C      49.928200000000004     52.190025000000006     47.233250000000005
C      46.900800000000004     51.445025000000001     52.680850000000000
C      46.932199999999995     52.776025000000004     51.530250000000002
C      51.302599999999998     53.164825000000008     45.324249999999999
C      51.909199999999998     50.285125000000008     44.309650000000005
C      44.634000000000000     42.846325000000007     51.019750000000009
H      47.870899999999992     51.537925000000001     53.179049999999997
H      49.847200000000001     46.150824999999998     46.599250000000005
H      44.583399999999997     44.775925000000001     52.839450000000006
H      45.105000000000004     48.068624999999997     53.082450000000001
H      48.303399999999996     45.908325000000005     48.119550000000004
H      47.058399999999992     46.976524999999995     47.700449999999996
H      48.311700000000002     52.607524999999995     49.157450000000004
H      51.031000000000006     46.842524999999995     44.411149999999999
H      52.085699999999989     48.787225000000007     42.820950000000003
H      49.774299999999997     50.867225000000005     44.254750000000001
H      49.874300000000005     53.160624999999996     47.596250000000005
H      50.890799999999999     53.543086000000002     44.380950000000006
H      50.881900000000002     53.891575000000003     46.015850000000000
H      52.479399999999998     53.269605800000008     45.522950000000002
H      52.564099999999996     50.248525000000001     45.157650000000004
H      52.447699999999998     51.066424999999995     43.707950000000004
H      44.602099999999993     42.357725000000002     49.871850000000002
H      43.435900000000004     42.968325000000007     51.211250000000000
H      45.169600000000003     42.108424999999997     51.642850000000003
N      46.505699999999990     44.476825000000005     50.317950000000003
O      47.113000000000000     53.798309000000010     51.099650000000004
O      48.803100000000001     48.470124999999996     43.105150000000002
