18

C      49.161099999999990     47.125347499999990     47.790450000000000
C      47.949799999999996     47.057457499999998     48.678849999999997
C      50.167200000000001     46.506727499999997     48.676950000000005
C      46.579900000000002     47.549217500000005     48.420050000000003
C      48.980400000000003     47.826877500000002     46.483249999999998
C      46.050500000000000     48.585597499999999     47.610750000000010
C      49.603600000000000     46.198522500000003     49.985050000000001
C      48.252899999999997     46.688547499999999     50.071449999999999
C      48.092300000000002     48.921547500000003     46.081850000000003
C      46.916800000000002     49.311397499999991     46.611950000000007
H      51.075299999999999     46.243701500000000     48.183950000000010
H      45.703200000000002     47.295227500000003     49.056849999999997
H      49.578699999999991     47.324577499999997     45.712750000000000
H      44.924700000000001     49.084217500000001     47.875250000000008
H      50.362000000000002     45.778782499999998     50.711650000000006
H      47.582000000000001     46.294943500000002     50.731549999999999
H      48.324799999999996     49.430377499999999     45.268450000000001
H      46.626700000000000     50.221217500000002     46.135050000000007
