18

C      48.567349999999998     47.406749999999988     47.974774999999994
C      47.110150000000004     47.384249999999994     48.755224999999996
C      48.626949999999994     47.067449999999994     46.588274999999996
C      46.118150000000000     47.369749999999996     47.768654999999995
C      49.978650000000002     47.370850000000004     48.464594999999989
C      47.378649999999993     47.728549999999998     50.123024999999998
C      47.413349999999994     46.924250000000001     45.795755000000000
C      46.236850000000004     47.355949999999993     46.327494999999999
C      49.948750000000004     48.041950000000000     49.788024999999990
C      48.719149999999999     48.016850000000005     50.703625000000002
H      49.456249999999997     46.931650000000005     45.787754999999990
H      45.113849999999999     47.339250000000007     48.300375000000003
H      50.712649999999996     47.194149999999993     47.758024999999989
H      46.759850000000000     47.881450000000001     51.006625000000000
H      47.377749999999992     46.880750000000006     44.719875000000002
H      45.511550000000000     47.394049999999993     45.486345000000000
H      50.886150000000001     48.048850000000002     50.043424999999999
H      48.532749999999993     49.119249999999994     51.280124999999998
