34

C      47.658349999999992     47.444599999999994     48.360699999999994
C      47.387349999999998     46.735099999999996     49.655499999999996
C      51.234849999999994     49.512999999999998     50.724899999999998
C      48.826149999999998     48.322999999999986     48.219200000000001
C      48.243949999999998     46.720799999999997     50.841299999999997
C      50.620450000000005     49.537199999999999     49.398199999999996
C      50.577849999999998     48.415200000000006     51.422900000000006
C      49.499849999999995     48.541399999999989     49.458500000000008
C      49.305549999999997     47.818499999999993     50.671700000000001
C      46.834850000000003     47.115499999999997     47.081899999999997
C      45.869050000000001     46.042800000000000     47.042800000000000
C      45.659549999999996     45.471899999999998     48.473899999999993
C      46.334450000000004     45.604999999999997     49.612100000000005
C      46.906350000000003     47.814300000000010     45.821999999999996
C      46.585949999999997     47.466000000000001     44.305799999999998
C      45.973650000000006     46.187500000000000     44.383099999999999
C      45.280150000000006     45.730899999999998     45.643000000000001
C      48.088049999999996     48.618699999999997     45.810800000000000
C      48.989450000000005     49.180500000000002     46.945500000000003
C      49.910750000000007     50.291600000000010     47.026600000000002
C      48.298850000000002     46.498500000000000     52.168900000000001
H      51.880150000000000     50.136399999999988     51.170300000000005
H      51.115350000000007     47.902199999999993     52.372400000000006
H      44.796149999999997     44.633800000000001     48.702400000000004
H      45.987750000000005     45.047199999999997     50.621199999999995
H      46.892250000000004     47.884500000000003     43.239899999999999
H      45.850750000000005     45.619799999999998     43.504399999999997
H      48.704449999999994     49.165300000000009     45.149499999999996
H      50.045749999999998     51.149699999999989     46.212100000000000
H      47.574550000000002     46.009200000000000     52.670399999999994
H      49.300250000000005     46.677399999999999     52.760100000000001
H      51.345950000000002     51.366199999999999     48.391799999999996
N      50.681749999999994     50.405600000000000     48.233200000000004
O      44.119850000000000     45.663599999999995     45.440899999999999
