5

C      48.266349999999989     47.823499999999996     47.954899999999995
H      47.233950000000000     47.352499999999999     48.579600000000006
H      48.766050000000000     48.204500000000003     48.838000000000001
H      48.033450000000009     48.841400000000000     47.384599999999999
H      48.742150000000002     47.158600000000000     47.161999999999999
