68

C      50.269349999999996     49.196449999999992     50.530599999999993
C      49.559350000000009     50.350549999999998     49.959699999999991
C      47.754649999999998     46.064850000000000     47.529400000000003
C      46.646850000000001     47.149950000000004     47.490499999999990
C      50.095550000000003     47.989450000000005     49.714700000000001
C      48.393250000000009     50.158850000000001     48.998899999999999
C      49.008049999999997     46.128950000000003     48.497999999999998
C      46.871949999999998     48.514650000000003     48.057600000000001
C      49.072850000000003     47.553849999999997     48.820699999999995
C      48.179749999999999     48.750250000000001     48.681899999999992
C      51.128150000000005     49.241450000000000     51.767899999999990
C      51.606549999999999     50.564250000000001     52.052500000000002
C      51.148049999999998     51.765249999999995     51.419899999999991
C      49.961349999999996     51.580249999999992     50.585900000000002
C      47.210450000000009     44.344949999999997     45.800899999999992
C      46.382950000000008     45.517250000000004     45.068099999999994
C      45.536250000000010     45.910049999999998     45.782499999999992
C      45.444950000000006     47.000150000000005     46.757600000000004
C      51.922449999999998     47.622450000000001     51.438899999999997
C      52.211550000000003     51.390550000000005     53.533600000000000
C      51.137850000000000     50.139349999999993     53.262700000000002
C      52.658650000000009     47.411749999999998     50.025699999999993
C      51.287250000000000     47.098050000000001     50.187899999999992
C      50.796950000000010     45.788950000000000     50.321499999999993
C      49.881050000000002     45.350850000000001     49.252099999999992
C      47.896650000000008     44.723649999999999     47.042899999999996
C      47.248050000000006     43.051949999999998     45.412399999999998
C      47.474750000000000     51.339050000000000     48.627400000000002
C      48.090050000000005     52.601150000000004     48.904899999999991
C      49.463149999999999     52.931349999999995     49.955300000000001
C      45.165250000000000     51.068750000000009     45.189799999999998
C      46.336449999999999     51.031350000000003     44.403599999999990
C      44.420950000000005     51.347450000000009     46.324300000000001
C      44.410049999999998     51.187750000000001     42.729599999999998
C      47.890150000000006     50.387050000000002     46.115499999999990
C      45.821050000000000     51.037850000000006     43.000899999999994
C      43.693950000000001     51.699749999999995     45.128300000000003
C      43.601550000000003     52.073149999999998     43.705999999999996
C      47.224750000000000     51.201250000000002     47.144299999999994
C      47.705650000000006     50.557550000000006     44.639000000000003
H      52.881349999999998     45.785750000000000     51.678199999999997
H      53.091250000000002     46.439949999999996     53.214899999999993
H      46.284750000000003     49.297650000000004     47.783700000000003
H      51.102850000000004     52.862850000000009     51.870600000000003
H      46.509349999999998     45.319050000000004     43.907999999999994
H      44.578950000000006     46.127549999999999     45.123199999999990
H      44.588850000000008     47.681650000000005     46.714800000000004
H      51.365150000000000     49.406049999999993     54.099200000000003
H      53.354349999999997     47.539050000000003     49.202199999999998
H      50.806150000000002     45.039149999999999     51.034199999999991
H      46.672750000000008     42.711449999999999     44.460500000000003
H      48.726050000000001     43.935050000000004     47.291800000000002
H      47.893550000000005     42.364649999999997     45.874400000000001
H      49.828950000000006     44.197650000000003     48.929600000000001
H      46.493949999999998     51.096050000000005     49.303400000000003
H      48.585250000000002     52.851649999999992     47.954799999999999
H      47.292550000000006     53.446150000000003     49.230399999999996
H      48.706850000000003     53.537449999999993     50.788300000000000
H      50.194649999999996     53.635350000000003     49.606699999999996
H      43.983450000000005     51.392949999999999     47.409299999999995
H      44.136049999999997     50.698549999999997     41.900799999999997
H      48.508250000000004     49.497450000000001     46.515399999999993
H      46.335850000000008     50.627949999999998     42.150100000000002
H      42.645650000000003     52.732050000000001     43.247799999999991
H      46.403250000000000     51.937049999999999     46.695199999999993
H      48.204750000000004     50.210350000000005     43.801700000000004
N      52.537750000000003     46.862549999999999     52.503200000000000
O      53.228350000000006     51.774550000000005     53.797800000000002
