5

C      48.144999999999989     48.266149999999989     48.304299999999991
H      47.093400000000003     48.493049999999997     48.568899999999999
H      48.455799999999996     48.832250000000002     47.219899999999996
H      48.906599999999997     48.814949999999996     48.780100000000004
H      48.644300000000001     47.167749999999998     48.004999999999995
