18

C      47.337100000000000     48.142999999999994     47.710199999999986
C      48.524299999999997     48.300799999999995     48.566700000000012
C      46.169499999999999     47.202999999999989     48.003699999999995
C      48.231800000000007     47.790399999999991     49.868099999999998
C      47.341999999999999     48.936700000000002     46.494399999999999
C      49.799499999999995     48.827799999999996     48.004599999999996
C      46.239199999999997     46.275499999999994     49.127300000000005
C      47.103999999999999     46.867099999999994     50.113299999999995
C      48.430999999999997     49.517299999999992     45.938900000000004
C      49.700400000000002     49.373099999999994     46.613200000000006
H      45.827299999999994     46.512899999999995     47.200999999999993
H      48.801800000000000     47.611399999999989     50.771100000000004
H      46.375399999999999     48.970999999999989     45.945200000000000
H      50.796599999999998     49.028899999999993     48.651799999999994
H      45.203400000000002     45.844999999999999     49.541700000000006
H      47.062799999999996     46.157899999999998     51.047200000000004
H      48.316599999999994     50.155000000000001     44.952799999999996
H      50.450699999999998     50.044599999999988     46.117699999999999
