22

C      48.409464999999983     50.474999999999994     48.803099999999986
C      47.502605000000003     48.344300000000004     47.996199999999995
C      48.520565000000005     47.287900000000000     48.205399999999997
C      48.022165000000001     49.580900000000007     47.487399999999994
C      49.888265000000004     47.361600000000003     47.814299999999996
C      46.376274999999993     48.230800000000002     48.778299999999994
C      48.128564999999995     45.961300000000001     48.773499999999999
C      49.199865000000003     49.415700000000001     46.715499999999999
C      50.145164999999992     48.327800000000003     46.765699999999995
C      46.004564999999999     46.908900000000003     49.153699999999994
C      46.768284999999992     45.632800000000003     48.890599999999999
H      47.745064999999997     51.325399999999995     49.031900000000000
H      49.560564999999997     50.250700000000002     49.166300000000000
H      48.206964999999997     50.233100000000000     49.838000000000001
H      47.174014999999997     50.258800000000001     46.995300000000000
H      50.547465000000003     46.664500000000004     48.137899999999995
H      45.644435000000001     48.990700000000004     48.942599999999999
H      48.824365000000000     45.006800000000005     49.165799999999997
H      49.437564999999992     50.465600000000002     46.161999999999999
H      51.066465000000008     48.585600000000007     46.428999999999995
H      44.933534999999992     46.987700000000004     49.655199999999994
H      46.481285000000000     44.674600000000005     49.073799999999999
