40

C      47.851999999999997     48.319129999999987     47.290699999999994
C      46.750600000000006     48.891130000000004     46.532399999999996
C      49.728900000000003     47.976429999999993     43.004800000000003
C      49.041399999999996     47.688929999999999     46.620899999999992
C      46.827100000000002     49.019630000000006     45.008699999999990
C      50.203699999999998     47.533230000000003     44.293300000000002
C      49.195800000000006     48.005430000000004     45.228600000000000
C      47.961300000000008     48.467129999999997     44.375699999999995
C      47.723600000000005     47.947029999999998     48.650800000000004
C      46.493600000000001     48.429929999999999     49.285100000000000
C      45.247600000000006     48.968630000000005     48.596599999999995
C      45.522500000000008     49.199529999999996     47.159199999999998
C      48.987000000000009     47.407330000000002     49.302399999999992
C      48.951000000000008     47.353229999999996     50.692899999999995
C      48.105699999999999     48.174229999999994     51.546199999999999
C      46.676800000000000     48.380930000000006     50.906099999999995
C      50.116600000000005     46.854730000000004     48.485900000000001
C      50.263999999999996     47.038529999999994     47.119100000000003
C      51.519100000000002     46.401929999999993     46.285699999999991
C      51.658400000000000     46.853430000000003     44.750500000000002
C      47.921300000000002     47.965829999999997     52.954099999999997
C      44.573500000000003     49.710830000000001     46.013499999999993
C      45.355600000000003     49.658330000000007     44.625199999999992
C      45.831200000000003     48.888630000000006     51.493200000000002
H      50.016400000000004     47.890529999999998     42.145899999999997
H      44.370600000000003     48.884829999999994     49.097099999999998
H      49.927499999999995     46.744630000000001     50.906700000000001
H      51.050700000000006     46.655029999999996     49.010800000000003
H      52.287899999999993     46.856229999999996     46.822499999999991
H      51.890500000000003     45.334469999999996     46.615799999999993
H      51.959500000000006     46.041520000000006     44.038499999999999
H      52.593800000000002     47.493629999999996     44.555599999999998
H      48.529200000000003     48.476129999999998     53.854100000000003
H      45.160600000000002     48.838530000000006     44.057199999999995
H      45.587900000000005     50.665530000000004     44.217699999999994
H      46.267700000000005     49.738129999999998     52.117099999999994
H      44.878000000000000     48.388729999999995     51.912300000000002
N      48.488800000000012     48.526030000000006     43.112700000000004
O      47.389300000000006     46.904229999999998     53.127200000000002
O      43.406199999999998     49.862229999999997     45.871799999999993
