18

C      48.087599999999995     47.599999999999994     47.455149999999989
C      47.658099999999997     48.555200000000006     48.548349999999992
C      49.066600000000001     47.807400000000001     46.430649999999993
C      48.133899999999990     49.902400000000007     48.569550000000000
C      47.549999999999997     46.192200000000000     47.569550000000000
C      46.568800000000003     47.933299999999996     49.314249999999994
C      49.582400000000000     49.091600000000000     46.950849999999996
C      48.780099999999997     50.365500000000004     47.403449999999999
C      46.454400000000000     45.689799999999998     48.111849999999997
C      46.070500000000003     46.568599999999996     49.299450000000000
H      49.567599999999999     47.023900000000005     45.713850000000001
H      47.947000000000003     50.510600000000004     49.451749999999997
H      47.753099999999996     45.576200000000000     46.552849999999999
H      46.108400000000003     48.475000000000001     50.251950000000001
H      50.276600000000002     49.517199999999995     46.293649999999992
H      49.368000000000002     51.365299999999998     47.384250000000002
H      46.204799999999999     44.634700000000002     47.940549999999995
H      45.723399999999998     46.316700000000004     50.286149999999999
