51

C      47.480504999999994     48.368849999999995     46.948949999999996
C      47.742804999999990     47.546250000000001     45.756450000000008
C      50.815704999999994     45.082549999999998     49.010449999999999
C      50.611604999999997     44.205249999999999     47.922249999999998
C      48.232905000000002     47.882449999999999     48.099049999999998
C      48.502004999999997     46.349350000000001     45.626950000000001
C      49.917004999999989     46.328949999999999     49.125350000000005
C      49.554704999999998     44.458250000000000     46.802749999999996
C      49.067904999999996     46.699849999999998     48.026750000000000
C      49.121605000000002     45.897350000000003     46.826950000000004
C      46.630605000000003     49.486150000000002     47.153349999999996
C      45.847004999999996     49.905049999999996     45.961950000000009
C      45.879005000000006     49.056049999999992     44.695050000000002
C      46.892004999999997     48.081650000000003     44.632849999999998
C      51.820205000000001     44.328049999999998     49.841550000000005
C      52.309105000000002     43.163650000000004     49.080950000000009
C      51.598405000000000     43.150350000000003     47.836649999999999
C      46.271505000000005     50.181149999999995     48.456949999999999
C      45.179805000000002     51.126749999999994     48.063549999999999
C      44.637505000000004     52.029149999999994     48.969450000000002
C      44.900604999999999     50.863949999999996     46.627550000000006
C      47.021304999999998     49.710450000000002     49.587449999999997
C      48.157105000000001     48.683150000000005     49.438849999999995
C      49.205304999999996     48.526450000000004     50.417549999999999
C      50.194005000000004     47.558750000000003     49.984550000000006
C      43.446865000000003     52.767649999999996     48.649149999999999
C      49.071905000000001     48.140349999999998     51.835349999999998
C      49.746804999999995     50.126849999999997     50.370449999999998
C      52.490004999999996     44.431150000000002     51.069350000000007
C      43.583164999999994     50.767149999999994     45.660450000000004
H      48.925105000000002     45.652149999999999     44.718049999999998
H      49.502504999999999     43.636450000000004     46.032350000000001
H      45.649204999999995     49.427750000000003     43.552050000000001
H      47.041505000000001     47.316150000000000     43.742550000000001
H      53.368804999999995     42.623649999999998     49.392450000000004
H      51.479105000000004     42.421849999999999     47.037749999999996
H      44.663505000000001     52.145450000000004     50.081150000000001
H      46.854304999999997     50.043849999999999     50.538050000000005
H      51.124605000000003     47.783549999999998     50.229250000000000
H      50.109904999999998     47.978549999999998     52.355250000000005
H      48.549904999999995     47.090049999999998     51.808450000000001
H      48.635404999999992     48.938750000000006     52.447949999999999
H      50.587604999999996     50.347749999999998     51.173850000000009
H      50.049004999999994     50.372049999999994     49.567550000000004
H      48.659904999999995     50.703550000000000     50.486449999999998
H      53.194504999999992     43.642049999999998     51.516050000000000
H      52.070504999999997     45.316650000000003     51.356950000000005
H      43.807595000000006     50.394250000000007     44.715250000000005
H      43.564674999999994     51.904649999999997     45.643650000000001
H      42.631195000000005     50.283049999999996     45.967250000000000
O      42.872204999999994     53.578150000000001     48.211250000000000
