18

C      48.243049999999997     47.756350000000005     47.363349999999997
C      48.312150000000003     48.057550000000006     48.791550000000008
C      48.739049999999992     48.927250000000001     46.645649999999996
C      48.981049999999996     49.203450000000004     49.374150000000007
C      47.462750000000000     46.834750000000000     46.601350000000004
C      47.653049999999993     47.015550000000005     49.526150000000008
C      49.651449999999997     49.849950000000007     47.240850000000002
C      50.013850000000005     49.893950000000004     48.634149999999998
C      46.644250000000000     45.893150000000006     47.356050000000003
C      46.859750000000005     45.984050000000011     48.734950000000005
H      48.387149999999991     48.960950000000011     45.453550000000000
H      48.718249999999998     48.810050000000004     50.546450000000000
H      47.424149999999997     46.815350000000009     45.478950000000005
H      48.030550000000005     46.863050000000001     50.482450000000007
H      50.001949999999994     50.680250000000001     46.584150000000001
H      50.220849999999999     50.774850000000001     49.350850000000001
H      45.779150000000001     45.287850000000006     46.791150000000009
H      46.383949999999999     45.225149999999999     49.248849999999997
