18

C      47.589649999999992     47.715999999999994     47.242799999999988
C      48.433850000000007     47.863400000000006     48.537999999999997
C      47.491450000000000     48.568500000000007     46.090100000000000
C      49.117450000000005     49.174800000000012     48.572799999999994
C      46.804349999999999     46.492200000000004     46.950599999999994
C      48.404049999999998     46.904800000000002     49.579299999999996
C      48.163950000000000     49.865600000000008     46.325600000000001
C      49.003749999999997     50.138500000000001     47.448100000000004
C      46.951750000000004     45.645700000000005     48.134299999999989
C      47.528950000000009     45.955700000000000     49.286399999999993
H      46.599450000000004     48.275800000000011     45.372099999999996
H      49.779550000000000     49.507500000000000     49.386899999999997
H      46.220450000000000     46.247000000000000     45.866099999999996
H      48.879750000000001     47.024900000000002     50.627900000000004
H      48.150250000000000     50.583400000000005     45.530200000000001
H      49.301050000000004     51.174900000000001     47.492599999999996
H      46.228750000000005     44.825099999999999     47.773799999999994
H      47.333449999999999     45.362100000000005     50.334299999999992
