6

C      47.278749999999995     48.009488999999995     47.785899999999998
C      48.643649999999994     47.842881999999996     48.229600000000005
H      46.562950000000001     48.699534999999997     48.153199999999998
H      49.437049999999999     47.300465000000003     47.772499999999994
H      46.775149999999996     47.390664999999991     47.055300000000003
H      49.072249999999997     48.564864999999998     48.944699999999997
