200

C      48.105699999999999     46.951489999999986     49.236165000000000
C      55.483699999999999     49.177269999999986     43.647265000000004
C      55.996499999999997     49.030879999999982     42.341464999999999
C      51.219700000000003     45.740879999999990     47.957765000000009
C      54.005699999999990     49.034859999999981     43.999264999999994
C      51.476100000000002     44.381259999999990     48.588864999999998
C      54.786799999999999     48.248959999999983     41.725265000000007
C      51.527699999999996     43.066797999999991     47.864465000000010
C      50.050399999999996     49.280869999999993     47.984765000000010
C      49.820800000000006     50.033269999999987     50.712265000000002
C      53.429400000000001     48.194149999999993     46.404565000000005
C      48.951700000000002     48.999349999999993     50.554964999999996
C      53.785400000000010     48.185069999999982     42.761865000000000
C      49.625500000000002     49.602329999999981     49.361265000000003
C      50.039200000000008     46.665359999999993     47.439265000000006
C      52.620899999999992     47.237699999999982     42.579464999999999
C      51.583399999999997     46.888249999999985     47.329665000000006
C      50.897800000000004     48.107759999999985     47.731864999999999
C      52.347399999999993     48.040389999999988     47.546565000000001
C      56.324300000000008     49.526319999999984     44.853965000000002
C      57.696199999999990     49.728319999999989     44.162665000000004
C      58.240799999999993     49.662119999999987     42.735564999999994
C      57.411599999999993     49.090599999999981     41.802365000000009
C      51.097099999999998     43.107422999999990     49.125165000000010
C      52.231899999999996     42.677615999999993     51.368165000000005
C      52.263099999999994     42.509199999999971     49.935064999999994
C      48.120099999999994     47.773379999999989     50.560164999999998
C      55.878999999999991     49.550069999999991     46.265164999999996
C      56.850499999999997     49.922579999999982     47.380565000000004
C      58.075400000000002     50.154629999999983     46.827164999999994
C      58.323399999999992     50.205949999999987     45.399164999999996
C      54.337600000000009     49.644619999999982     46.523965000000004
C      53.389800000000008     49.341239999999985     45.364964999999998
C      59.996399999999994     51.395339999999983     43.139965000000004
C      59.320300000000003     50.466469999999980     42.274365000000003
C      57.786900000000003     48.898809999999983     40.414664999999999
C      57.392800000000008     48.023469999999989     39.257165000000001
C      54.834199999999996     47.565849999999983     40.326364999999996
C      57.140699999999995     47.496419999999986     37.942224999999993
C      49.544100000000000     50.199859999999980     46.936765000000008
C      50.375199999999992     42.580638299999990     46.653964999999999
C      51.907399999999996     49.449909999999981     45.017965000000004
C      49.736199999999997     42.946209999999994     49.816164999999998
C      44.853200000000001     48.873769999999993     51.918565000000001
C      43.558599999999998     48.012819999999991     49.880565000000004
C      46.229299999999995     53.554499999999990     54.970365000000001
C      45.240899999999996     52.643699999999981     55.602665000000002
C      45.623800000000003     48.277149999999992     52.862664999999993
C      43.048900000000003     49.188329999999986     49.641064999999998
C      46.966600000000000     53.127099999999984     53.775165000000001
C      45.146699999999996     51.344189999999990     54.975764999999996
C      45.236100000000008     49.718999999999987     52.965665000000001
C      45.638100000000009     51.047249999999991     53.624465000000001
C      44.101299999999995     47.024719999999981     48.978765000000010
C      43.763300000000001     48.958989999999986     50.952965000000006
C      44.911799999999999     46.504079999999988     46.731765000000010
C      46.731999999999999     54.586399999999990     56.013464999999997
C      46.254599999999996     54.768399999999986     57.358064999999996
C      45.060999999999993     53.950499999999984     57.789464999999993
C      44.584299999999999     52.931999999999981     56.875565000000009
C      46.584699999999998     51.956119999999984     53.061665000000005
C      42.058800000000005     46.657829999999990     45.140165000000010
C      42.920900000000003     45.473009999999988     45.311064999999999
C      36.605800000000002     42.323900000000002     42.616064999999992
C      37.405000000000001     41.488399999999977     41.826165000000003
C      40.654399999999995     46.744769999999988     44.559164999999993
C      42.426900000000003     44.290219999999991     44.561265000000006
C      36.955700000000007     43.613089999999993     43.100565000000003
C      38.780400000000000     41.901699999999991     41.714564999999993
C      38.858300000000000     45.194379999999988     43.511065000000002
C      40.695200000000000     43.091995999999988     43.170465000000007
C      40.180300000000003     45.456619999999987     43.916965000000005
C      41.105100000000007     44.287529999999990     43.905865000000006
C      38.286000000000001     43.953369999999993     43.028064999999998
C      39.302199999999999     42.799183999999983     42.614065000000011
C      42.569100000000006     47.926959999999987     45.728265000000007
C      45.264800000000008     45.167949999999990     46.310365000000004
C      44.215000000000003     45.792619999999992     45.774565000000010
C      44.884799999999998     47.500299999999982     47.884264999999999
C      39.864500000000007     47.875719999999987     44.629864999999995
C      40.158200000000008     49.130249999999990     45.376265000000004
C      41.576999999999998     48.950619999999986     45.775265000000005
C      39.634500000000003     50.541859999999993     45.098664999999997
C      43.152000000000001     49.174319999999980     45.967065000000005
C      40.104500000000002     51.821969999999993     45.979065000000006
C      48.808700000000002     44.537619999999990     53.683265000000006
C      52.322099999999992     47.055669999999985     53.379865000000009
C      49.312399999999997     45.042229999999989     54.744564999999994
C      51.649000000000001     47.428399999999982     54.713965000000002
C      52.572199999999995     48.177369999999982     52.308464999999998
C      50.065899999999999     45.446519999999992     53.620364999999993
C      50.956999999999994     46.626929999999987     53.695265000000006
C      49.247799999999998     45.796179999999993     56.065264999999997
C      50.622500000000002     46.521489999999986     56.724065000000010
C      51.564099999999996     47.615209999999990     56.168565000000001
C      52.522999999999996     48.376949999999987     57.100864999999999
C      51.355900000000005     45.175629999999991     57.367864999999995
C      47.982500000000002     50.598489999999984     47.422165000000007
C      45.913600000000002     46.724409999999992     54.686565000000002
C      46.635999999999996     45.447069999999989     54.814665000000005
C      45.463300000000004     47.549529999999983     55.773165000000006
C      46.678500000000000     45.098069999999993     56.226865000000004
C      46.557299999999998     47.434579999999983     53.425164999999993
C      47.302199999999999     45.024079999999991     53.486064999999996
C      45.295900000000003     46.884759999999993     57.076565000000002
C      46.091600000000000     45.694969999999991     57.468564999999998
C      48.360799999999998     47.032009999999993     51.749364999999997
C      47.057600000000008     46.328709999999987     52.400864999999996
H      48.158799999999999     47.726779999999984     48.331665000000001
H      48.857900000000001     46.103309999999993     49.049464999999998
H      47.184700000000007     46.507099999999987     48.981364999999997
H      52.546199999999999     42.677855999999991     47.939765000000008
H      50.061800000000005     50.478739999999988     51.630764999999997
H      48.887799999999999     45.061869999999992     46.920865000000006
H      54.285399999999996     47.441809999999990     46.370564999999999
H      53.059500000000000     41.581199999999988     49.528665000000004
H      47.063000000000002     48.078429999999983     50.949965000000006
H      56.509500000000003     50.149029999999989     48.338065000000000
H      58.781399999999991     50.470579999999984     47.585165000000003
H      59.292200000000008     50.717439999999989     45.183665000000005
H      53.851500000000001     50.197319999999991     47.273265000000009
H      59.705199999999991     50.519729999999981     41.401965000000004
H      58.694599999999994     49.214959999999984     39.870165000000000
H      53.787399999999991     47.262479999999982     39.957065000000000
H      55.646100000000004     46.232199999999992     40.164365000000004
H      56.801699999999997     46.569879999999991     37.475575000000006
H      57.790499999999994     48.115249999999989     37.190434999999994
H      50.897999999999996     42.030699999999989     46.023965000000004
H      49.822999999999993     43.385521999999987     46.493565000000004
H      49.560500000000005     41.854099999999967     47.032364999999999
H      51.576300000000003     50.209469999999982     44.196764999999999
H      51.642399999999995     49.634729999999990     46.036465000000007
H      51.533599999999993     48.515419999999992     44.619365000000002
H      49.595199999999991     41.739799999999988     50.158965000000009
H      48.776299999999992     43.160196999999989     49.008465000000001
H      49.634900000000002     43.542048999999992     50.748365000000007
H      50.171700000000001     43.285173999999984     53.671864999999997
H      53.155500000000004     48.884639999999983     52.802364999999995
H      48.492900000000006     42.514999999999993     52.682964999999996
H      49.426500000000004     46.317979999999991     51.785965000000004
H      47.943700000000007     53.494299999999981     53.612265000000008
H      44.730000000000004     50.571839999999980     55.606465000000000
H      43.511899999999997     45.953279999999992     48.899065000000007
H      43.205799999999996     49.741769999999988     48.664465000000007
H      47.509000000000000     55.525099999999988     56.101564999999994
H      46.726900000000001     55.206199999999981     58.276165000000006
H      44.696600000000004     54.035799999999981     58.809565000000006
H      43.859300000000005     52.198409999999988     57.425965000000005
H      46.138100000000009     51.436029999999988     51.010265000000004
H      35.512400000000000     41.805199999999964     42.902664999999999
H      37.086500000000001     40.474900000000012     41.546364999999994
H      42.995300000000000     43.451562999999993     43.844565000000003
H      36.046400000000006     44.090459999999993     43.669665000000009
H      39.298599999999993     41.017399999999988     41.241065000000006
H      37.989199999999997     45.849509999999988     43.085765000000009
H      41.409000000000006     42.330999999999982     43.140664999999998
H      46.023499999999999     44.620509999999989     46.921265000000005
H      45.149000000000001     48.422989999999984     47.720264999999998
H      38.858699999999999     47.913999999999987     44.484365000000011
H      39.528400000000005     48.964359999999985     46.260265000000004
H      38.490400000000008     50.524679999999989     45.262865000000005
H      39.813200000000009     50.963349999999984     44.144865000000010
H      44.330799999999996     49.003519999999980     46.535065000000003
H      43.435699999999997     49.590219999999988     45.015765000000002
H      39.932100000000005     52.689299999999982     45.515565000000009
H      41.179500000000004     51.853399999999986     45.976465000000005
H      39.638400000000004     51.488639999999990     46.950964999999997
H      53.289600000000007     46.479709999999990     53.417164999999997
H      53.055599999999998     47.653299999999987     51.405365000000003
H      51.598399999999998     48.813899999999990     52.112364999999997
H      48.719899999999996     45.318339999999992     56.823965000000001
H      49.003399999999999     46.825719999999990     55.498665000000003
H      50.300600000000003     46.888039999999990     57.770665000000008
H      50.796499999999995     48.752909999999993     56.456665000000001
H      52.758499999999998     49.475279999999984     56.694064999999995
H      52.481200000000001     47.877199999999981     58.162764999999993
H      53.994700000000009     48.085249999999981     57.063365000000005
H      52.127899999999997     44.719649999999987     56.573364999999995
H      50.634900000000002     44.277579999999993     57.691665000000000
H      51.146299999999997     45.568479999999987     58.423765000000003
H      47.746600000000001     46.574529999999982     46.221465000000009
H      47.038399999999996     51.034409999999994     47.310064999999994
H      47.380800000000008     49.680139999999980     47.127865000000000
H      47.796499999999995     50.556399999999989     48.429465000000008
H      55.463900000000010     48.269009999999980     39.594965000000002
H      45.284999999999997     48.550859999999986     55.660764999999998
H      47.041100000000000     44.198659999999990     56.737264999999994
H      47.526499999999999     47.812559999999984     53.852964999999998
H      46.933499999999995     43.889339999999990     53.300764999999998
H      44.488100000000003     46.933969999999988     57.601165000000009
H      46.093000000000004     44.950419999999980     58.250564999999995
H      48.841899999999995     47.869269999999986     52.563464999999994
H      46.441299999999998     46.209639999999993     51.617265000000003
N      48.810100000000006     46.228489999999994     46.744765000000001
N      49.110399999999998     43.058062999999990     53.511565000000004
O      51.685900000000004     46.608679999999993     42.681165000000007
O      50.021500000000003     50.555729999999983     45.972265000000007
O      51.905400000000000     43.493584999999989     52.014665000000008
O      60.487600000000000     52.135399999999990     43.863865000000004
O      47.000700000000009     51.876869999999990     51.658564999999996
