18

C      48.206899999999990     48.787649999999992     47.974449999999990
C      47.850500000000004     47.351450000000000     48.293050000000001
C      48.456899999999997     49.200550000000000     46.584550000000000
C      47.941299999999998     46.560350000000000     46.958549999999995
C      48.215799999999994     49.578450000000004     49.268750000000004
C      47.267199999999995     46.771649999999994     49.442649999999993
C      48.716400000000000     48.394649999999999     45.455849999999998
C      48.582400000000000     46.908050000000003     45.710850000000001
C      48.124400000000001     48.892650000000003     50.521849999999993
C      47.616399999999999     47.464250000000000     50.661149999999999
H      48.854099999999995     50.178049999999999     46.238149999999997
H      47.691899999999997     45.524050000000003     46.819849999999995
H      48.837399999999995     50.475949999999997     48.929049999999997
H      47.002000000000002     45.636749999999999     49.566949999999999
H      48.997999999999998     48.930750000000003     44.518250000000002
H      48.805399999999999     46.163449999999997     44.978749999999998
H      48.577199999999998     49.355249999999998     51.408949999999997
H      47.433399999999999     46.708250000000000     51.481749999999998
