18

C      47.277149999999985     48.333369999999988     48.371449999999996
C      48.671949999999995     47.910800000000002     47.946649999999998
C      46.547749999999994     47.177609999999994     48.718349999999994
C      49.286450000000002     46.647749999999995     47.822349999999993
C      46.613450000000000     49.589619999999989     48.495449999999998
C      49.487049999999996     49.165489999999998     47.769749999999995
C      47.103849999999994     45.809660000000001     48.453550000000000
C      48.522949999999994     45.463049999999996     48.119750000000003
C      47.462149999999994     50.419300000000000     47.753350000000005
C      48.895150000000001     50.483370000000001     47.472649999999994
H      45.448250000000002     47.383939999999996     48.767850000000003
H      50.399249999999995     46.641709999999996     47.532050000000005
H      45.521349999999998     49.709889999999994     48.697449999999996
H      50.551749999999998     48.879849999999998     47.479850000000006
H      46.416950000000000     45.074159999999999     48.176650000000002
H      48.956750000000000     44.549360000000000     48.353349999999999
H      47.304549999999992     51.450640000000000     47.708450000000006
H      49.422550000000001     51.442180000000000     47.232149999999997
