5

C      48.261099999999992     48.136999999999993     48.069899999999990
H      48.864000000000004     47.176900000000003     48.469499999999996
H      48.174400000000006     48.823099999999997     48.829499999999996
H      47.135999999999996     47.898600000000002     48.119199999999992
H      48.678300000000007     48.566199999999995     47.170500000000004
