18

C      47.220949999999995     47.554149999999993     48.473259999999989
C      48.371849999999995     47.699050000000007     47.604959999999998
C      46.211550000000003     48.248449999999998     47.764260000000000
C      48.574749999999995     48.372549999999997     46.285260000000001
C      47.507849999999998     46.733149999999995     49.745860000000008
C      49.811650000000000     47.277249999999995     47.929360000000003
C      46.401550000000000     48.890549999999998     46.531959999999998
C      47.526649999999989     49.182749999999992     45.726869999999998
C      48.917250000000010     46.695549999999997     50.174160000000001
C      50.004649999999998     46.843550000000000     49.323660000000004
H      45.042749999999998     47.993150000000007     48.184159999999999
H      49.580849999999998     48.115050000000004     45.828769999999999
H      46.803150000000002     46.204850000000000     50.250259999999997
H      50.851150000000004     47.252350000000000     47.508859999999999
H      45.557949999999998     48.986449999999998     46.011359999999996
H      47.428550000000001     49.795150000000000     44.739040000000003
H      49.288150000000002     46.503049999999995     51.260959999999997
H      50.957250000000002     46.851149999999997     49.886460000000000
