18

C      47.174154999999992     47.641499999999986     47.783149999999992
C      48.198785000000001     48.547700000000006     48.526550000000015
C      46.655374999999999     48.082999999999998     46.489950000000007
C      48.355135000000004     49.800200000000004     47.945650000000001
C      47.198864999999998     46.265900000000002     48.222549999999998
C      48.873384999999999     48.159199999999998     49.812050000000013
C      46.777605000000001     49.474500000000006     45.931550000000001
C      47.747315000000000     50.219300000000004     46.715050000000005
C      47.864095000000006     45.810400000000001     49.426550000000006
C      48.734575000000007     46.795699999999997     50.017250000000004
H      46.447015000000000     47.028800000000004     46.027250000000009
H      48.937995000000001     50.504300000000001     48.527349999999998
H      46.788574999999994     45.340999999999994     47.895650000000003
H      49.552985000000000     48.654799999999994     50.587150000000008
H      46.856394999999999     49.838800000000006     44.958150000000003
H      47.908114999999995     51.156400000000005     46.202250000000006
H      47.623255000000000     44.843599999999995     49.710250000000002
H      49.057985000000002     46.279100000000000     51.041849999999997
