18

C      48.068849999999998     48.671749999999989     47.228399999999986
C      47.417449999999995     47.607550000000003     48.124499999999998
C      48.328650000000003     49.917950000000005     48.046099999999996
C      47.319550000000000     47.772350000000003     49.608499999999992
C      48.717449999999992     48.411150000000006     45.965999999999994
C      47.166149999999995     46.333050000000000     47.567999999999998
C      48.090250000000005     49.895350000000008     49.422599999999996
C      47.490050000000004     48.933750000000003     50.321399999999997
C      48.250750000000004     47.193950000000001     45.382599999999996
C      47.532750000000000     46.149349999999998     46.218799999999995
H      48.912950000000002     50.761050000000012     47.723900000000000
H      46.622750000000003     47.001850000000005     49.956299999999999
H      49.377249999999997     49.392849999999996     45.833299999999994
H      46.914149999999999     45.540350000000004     48.310699999999997
H      48.205350000000003     50.828050000000005     49.908899999999988
H      47.041750000000000     49.116150000000005     51.364699999999999
H      48.981850000000001     46.920249999999996     44.635300000000001
H      47.527049999999996     45.171949999999995     45.738999999999997
