18

C      47.461149999999989     47.991299999999995     47.566150000000000
C      48.473500000000001     48.200000000000003     48.770049999999998
C      47.546580000000006     48.963400000000007     46.500650000000007
C      49.244370000000004     49.394700000000000     49.048550000000006
C      46.723849999999999     46.760800000000003     47.474750000000000
C      48.537100000000009     47.199399999999997     49.695750000000004
C      48.440449999999998     50.085800000000006     46.756550000000004
C      48.993780000000001     50.353800000000007     48.024550000000005
C      46.856830000000002     45.657399999999996     48.536649999999995
C      47.781819999999996     45.975999999999999     49.617649999999998
H      47.121309999999994     48.952700000000007     45.490049999999997
H      49.781310000000005     49.540800000000004     50.115849999999995
H      46.218689999999995     46.617300000000000     46.575050000000005
H      49.101710000000011     47.203299999999999     50.509950000000003
H      48.361189999999993     50.989599999999996     45.908150000000006
H      49.558650000000000     51.197400000000002     47.839950000000002
H      46.270949999999999     44.802599999999998     48.548550000000006
H      47.740470000000002     45.175399999999996     50.495149999999995
