18

C      47.228099999999998     48.123049999999992     48.529049999999991
C      48.390900000000002     47.655449999999995     47.804349999999999
C      46.754700000000000     47.221950000000000     49.532950000000000
C      49.340400000000002     46.720149999999997     48.296250000000001
C      46.525700000000001     49.357449999999993     47.963450000000002
C      48.946399999999997     48.409550000000003     46.604749999999996
C      47.367400000000004     45.942450000000001     49.998350000000002
C      48.703299999999999     45.902949999999997     49.321150000000003
C      46.903499999999994     50.074249999999999     46.823750000000004
C      48.224599999999995     49.620950000000001     46.303649999999998
H      45.745000000000005     47.366849999999999     50.193950000000001
H      50.254999999999995     46.463649999999994     47.734850000000002
H      45.755200000000002     49.630550000000007     48.552250000000001
H      49.596699999999998     48.519349999999996     45.903350000000003
H      46.695000000000007     45.252649999999996     50.441350000000000
H      49.311099999999996     45.050249999999998     49.599249999999998
H      46.343800000000002     50.949750000000002     46.375749999999996
H      48.655799999999999     50.126649999999991     45.558650000000000
