18

C      48.973849999999992     48.254499999999993     48.434099999999994
C      47.835850000000001     47.308299999999996     48.854699999999994
C      48.674950000000003     49.644700000000007     48.783699999999996
C      46.539749999999998     48.002900000000004     48.841899999999995
C      50.159449999999993     47.930000000000000     47.588899999999995
C      47.777450000000002     45.897100000000002     48.988199999999992
C      47.314750000000004     50.271700000000003     49.109999999999999
C      46.289950000000005     49.328399999999995     48.950400000000002
C      50.107050000000001     46.541900000000005     47.526399999999995
C      49.101150000000004     45.693199999999997     48.273699999999991
H      49.303550000000001     50.542099999999998     48.670199999999994
H      45.504649999999998     47.520800000000001     49.039400000000001
H      50.855750000000000     48.567100000000003     47.093800000000002
H      46.893650000000001     45.282900000000005     48.917099999999991
H      47.359749999999998     51.267000000000003     49.241799999999998
H      45.144250000000000     49.577000000000005     49.214399999999998
H      50.850749999999998     46.196300000000001     46.758200000000002
H      49.416450000000005     44.732999999999997     47.996299999999991
