18

C      48.579449999999994     48.538299999999992     48.173089999999988
C      47.418149999999997     47.962100000000000     47.477940000000004
C      49.856049999999996     47.938300000000005     48.018290000000007
C      47.704349999999991     47.036600000000000     46.364940000000004
C      48.244850000000000     49.349000000000011     49.359290000000001
C      46.053750000000008     48.474100000000000     47.554069999999996
C      50.153149999999997     47.142400000000002     46.859030000000004
C      49.050150000000002     46.706899999999997     46.096080000000001
C      46.881050000000002     49.551900000000010     49.754090000000005
C      45.835949999999997     48.883000000000003     48.881190000000004
H      50.777349999999998     48.117300000000007     48.618390000000005
H      46.687250000000006     46.691600000000001     45.731390000000005
H      49.061949999999996     49.698399999999999     50.014490000000009
H      45.368949999999998     48.529500000000006     46.732730000000004
H      51.164649999999995     46.794900000000005     46.879680000000008
H      49.335149999999999     45.930799999999998     45.400610000000000
H      46.620149999999995     50.069200000000002     50.599390000000000
H      44.835350000000005     48.969000000000001     49.298290000000009
