18

C      48.022749999999988     47.671149999999990     48.790049999999994
C      48.422649999999997     48.062849999999997     47.366149999999998
C      46.846150000000002     46.721449999999997     48.568249999999999
C      47.949549999999995     47.476549999999996     46.103450000000002
C      48.329249999999995     48.418250000000000     50.014549999999993
C      49.351350000000004     49.234349999999992     47.232350000000004
C      46.487850000000002     46.169350000000001     47.441750000000006
C      47.141449999999999     46.343449999999997     46.105849999999997
C      49.394849999999998     49.408450000000002     49.921150000000004
C      49.747149999999998     49.817749999999997     48.589250000000000
H      46.234649999999995     46.396549999999998     49.496249999999996
H      48.420449999999995     47.725949999999997     45.064850000000000
H      48.008649999999996     47.897549999999995     50.935150000000000
H      50.153950000000002     49.576949999999997     46.604549999999996
H      45.664250000000003     45.324449999999999     47.332249999999995
H      46.912649999999992     45.798450000000003     45.163949999999993
H      49.869250000000001     49.915149999999997     50.732250000000001
H      50.335749999999997     50.675550000000001     48.249350000000000
