8

C      48.563399999999994     48.670399999999994     48.187249999999992
C      47.385199999999998     47.481999999999999     48.124549999999999
H      49.120999999999995     49.292099999999991     47.480550000000001
H      47.807500000000005     49.570300000000003     48.474650000000004
H      49.400300000000001     48.298800000000000     48.903550000000003
H      46.599699999999999     47.249600000000001     48.878149999999998
H      47.057999999999993     47.182099999999998     47.096449999999997
H      47.700499999999991     46.429699999999997     48.424949999999988
