29

C      46.163099999999993     46.232199999999992     45.932539999999996
C      47.534799999999990     45.887799999999999     46.374539999999996
C      48.095799999999997     46.772500000000008     47.547139999999999
C      48.227099999999993     46.332700000000003     45.213540000000002
C      47.223500000000001     47.001500000000007     44.269440000000003
C      45.926000000000002     46.992900000000006     44.709140000000005
C      47.752800000000008     48.666499999999999     49.386340000000004
C      48.802300000000002     48.146900000000002     50.365340000000003
C      50.185599999999994     46.398099999999999     48.976939999999999
C      49.841700000000003     47.156500000000008     50.144140000000000
C      46.757100000000001     49.667000000000002     49.602540000000005
C      49.011400000000009     48.870699999999999     51.676240000000000
C      47.486400000000003     47.962000000000003     48.080140000000000
C      49.478900000000010     46.290800000000004     47.738939999999999
C      46.867800000000003     50.409500000000008     50.930740000000000
C      48.011499999999998     49.910000000000011     51.765140000000002
H      45.896300000000004     46.072900000000004     46.844539999999995
H      47.634900000000002     44.826099999999997     46.453040000000001
H      49.314300000000003     46.157700000000006     44.998240000000003
H      47.555300000000003     47.666200000000003     43.400359999999999
H      51.176699999999997     45.831299999999999     48.891140000000007
H      50.336700000000008     46.788899999999998     51.053640000000001
H      45.872100000000003     49.730500000000006     48.862940000000009
H      49.549799999999991     48.370200000000011     52.373140000000006
H      46.690399999999997     48.428000000000011     47.532839999999993
H      49.982699999999994     45.363900000000001     47.193340000000006
H      46.088799999999999     51.173900000000003     51.174840000000003
H      48.525599999999997     50.361000000000004     52.599640000000001
S      44.823300000000003     48.326900000000009     44.217540000000000
