87

C      54.378599999999992     47.914799999999985     44.595279999999981
C      51.972899999999996     49.141999999999996     44.043679999999995
C      48.989299999999993     48.427399999999992     38.627879999999990
C      48.428799999999995     48.230400000000003     46.064479999999989
C      54.730699999999992     46.980300000000000     43.601679999999988
C      47.930000000000000     48.973799999999997     39.514479999999992
C      47.808099999999996     48.507700000000000     44.698879999999988
C      53.038699999999999     48.165599999999998     44.917379999999994
C      49.893999999999998     48.376300000000001     45.586979999999997
C      47.103199999999994     48.909400000000005     42.292079999999999
C      52.509699999999995     46.789500000000004     42.894479999999987
C      47.990599999999993     48.882900000000006     40.940479999999994
C      53.876199999999997     46.437600000000003     42.590479999999999
C      48.122699999999995     48.607399999999998     43.302779999999998
C      51.963899999999995     47.810599999999994     43.975379999999987
C      50.477300000000000     48.220100000000002     40.557879999999997
C      50.499899999999997     48.179400000000001     44.094679999999997
C      49.300999999999995     48.536500000000004     41.413279999999986
C      49.557899999999997     48.351399999999998     42.902179999999987
C      52.708399999999997     48.343900000000005     46.306879999999992
C      51.073999999999998     47.917999999999992     46.745880000000000
C      45.839899999999993     49.257599999999996     42.440979999999996
C      51.591499999999996     45.696799999999996     42.555579999999992
C      46.827199999999998     49.066099999999992     55.156879999999987
C      47.912499999999994     49.707400000000007     54.307479999999998
C      45.802599999999998     48.915800000000004     48.532179999999997
C      45.899600000000000     48.334999999999994     54.367779999999996
C      47.575499999999998     49.554999999999993     49.658879999999996
C      47.777999999999999     49.699200000000005     52.842879999999994
C      47.177099999999996     49.293800000000005     48.296079999999989
C      44.545099999999998     47.862099999999998     52.082279999999997
C      44.244699999999995     47.926999999999992     50.701579999999993
C      45.649699999999996     48.468599999999995     52.813879999999997
C      45.492399999999996     48.590999999999994     49.891379999999998
C      46.687999999999995     49.269500000000008     52.093480000000000
C      46.543299999999995     49.506399999999999     50.566679999999991
C      46.902099999999997     48.971400000000003     56.633217999999999
C      49.003899999999994     50.393599999999992     56.596955999999999
C      48.166399999999996     49.348900000000000     57.308790000000002
C      48.991499999999995     50.155799999999999     55.114979999999989
C      43.508699999999997     47.108800000000002     52.971679999999992
C      42.265999999999998     46.512599999999992     52.427479999999989
C      42.301599999999993     46.421899999999994     50.984579999999994
C      43.277600000000000     47.130299999999991     50.035479999999993
C      43.721599999999995     47.118099999999998     54.403979999999990
C      44.730999999999995     47.864699999999999     55.060079999999999
C      45.675399999999996     48.310000000000002     57.222350000000006
C      44.580399999999997     47.835999999999999     56.534934999999997
C      47.093499999999999     50.568500000000000     47.399079999999998
C      47.804799999999993     48.268699999999995     47.476779999999991
C      41.065599999999996     47.323799999999991     51.998279999999994
H      49.925799999999995     50.764600000000002     54.747979999999998
H      55.272199999999991     47.473500000000001     45.248379999999997
H      51.713999999999999     50.377399999999994     44.236579999999989
H      48.841099999999997     48.028400000000005     37.622879999999995
H      50.145499999999998     49.360199999999992     45.869279999999989
H      55.682600000000001     46.375299999999996     43.731279999999998
H      46.746599999999994     49.327400000000011     39.153079999999989
H      46.811799999999998     48.713799999999992     45.072879999999998
H      51.376299999999993     48.273600000000002     41.190779999999990
H      54.287599999999991     45.690899999999999     41.774279999999990
H      53.506799999999998     47.902699999999996     46.837679999999992
H      53.077999999999996     49.265199999999993     46.240879999999990
H      50.806299999999993     48.350799999999992     47.709279999999993
H      51.191399999999994     46.886799999999994     47.003379999999993
H      50.560299999999998     45.979900000000001     42.797379999999990
H      51.772799999999997     44.685999999999993     42.246979999999994
H      50.850800000000000     47.727300000000000     38.361279999999994
H      45.115699999999997     49.326399999999992     47.721479999999985
H      48.583499999999994     49.905300000000011     49.949479999999994
H      48.336599999999997     50.163300000000007     52.021879999999996
H      49.892199999999995     50.945599999999999     57.022978000000009
H      48.373399999999997     49.149000000000001     58.313959999999994
H      41.981599999999993     45.551699999999997     53.003879999999995
H      41.595999999999997     45.972999999999999     50.434879999999993
H      42.921999999999997     46.592399999999998     54.847379999999987
H      45.560999999999993     48.249600000000001     58.377120000000005
H      43.524499999999996     47.178200000000004     56.963980000000006
H      47.482099999999996     50.404700000000005     46.417779999999993
H      47.761699999999998     51.314000000000007     47.825679999999991
H      46.012499999999996     50.870000000000005     47.120979999999989
H      48.919999999999995     48.313500000000005     47.912379999999999
H      41.363999999999997     48.334500000000006     51.866679999999988
H      40.317399999999999     46.633899999999997     52.499579999999995
H      43.269499999999994     46.886099999999999     48.916079999999994
N      50.248099999999994     48.129000000000005     39.116879999999995
O      44.709399999999995     49.163100000000000     42.343779999999995
