18

C      47.340149999999987     48.018849999999986     48.804519999999997
C      48.709649999999996     47.857650000000000     48.244670000000006
C      46.384149999999991     47.065849999999990     48.472510000000007
C      49.010849999999991     46.567450000000001     47.629250000000006
C      46.951749999999990     49.336350000000003     49.170350000000006
C      49.655649999999994     48.941749999999992     48.239320000000006
C      46.739750000000001     45.866750000000003     47.621580000000002
C      47.978249999999989     45.523850000000003     47.202550000000002
C      47.892550000000000     50.461449999999992     49.148470000000010
C      49.110349999999997     50.355550000000001     48.536650000000002
H      45.451650000000001     46.965449999999997     48.928390000000000
H      50.143749999999997     46.372549999999997     47.132190000000001
H      46.042649999999995     49.713349999999998     49.223330000000004
H      50.548349999999999     48.187350000000002     48.320680000000003
H      46.037949999999995     44.962150000000001     47.365480000000005
H      48.375749999999996     44.601250000000000     46.608160000000005
H      47.388849999999991     51.398750000000000     49.391839999999995
H      49.986449999999991     50.921550000000003     48.631880000000002
