19

C      47.904749999999993     47.842549999999989     47.645549999999986
C      47.396850000000001     48.835849999999994     48.582850000000008
C      48.059649999999998     46.340450000000004     47.919950000000000
C      47.178350000000002     48.417850000000001     49.917349999999999
C      48.448149999999991     49.343249999999998     45.947149999999993
C      47.111849999999997     50.153450000000007     48.111049999999992
C      47.599750000000000     45.882949999999994     49.166150000000002
C      47.068350000000002     46.900649999999999     50.117450000000005
C      48.738449999999993     48.178250000000006     46.438350000000000
C      47.704349999999998     50.408850000000001     46.796149999999997
H      48.654550000000008     49.580150000000003     45.004149999999996
H      48.696149999999996     45.688350000000000     47.367449999999991
H      46.883350000000000     49.229749999999996     50.605049999999991
H      47.039549999999998     51.184550000000002     46.278949999999995
H      46.609349999999999     50.844650000000001     48.839950000000002
H      47.206250000000004     44.815449999999998     49.587949999999992
H      46.718650000000004     46.186650000000000     50.995850000000004
H      49.390650000000001     47.481049999999996     45.852449999999990
H      48.563650000000003     51.166050000000013     46.697949999999992
