18

C      48.047799999999995     47.394050000000000     48.567199999999993
C      48.090499999999999     48.000749999999996     47.174999999999997
C      46.734600000000000     46.741950000000003     48.951700000000002
C      47.031200000000005     48.032650000000004     46.160699999999991
C      48.809800000000003     47.974750000000000     49.634299999999996
C      49.462800000000009     48.600450000000009     47.209099999999992
C      45.671800000000005     46.685450000000003     48.079599999999999
C      45.811600000000006     47.368250000000003     46.787199999999999
C      49.960199999999993     48.864649999999997     49.634699999999995
C      50.415300000000002     48.984150000000000     48.280699999999996
H      46.745400000000004     46.339849999999998     49.973399999999998
H      47.180300000000003     48.621949999999998     45.306600000000003
H      48.282200000000003     47.773849999999996     50.693399999999997
H      49.380700000000012     49.083250000000007     46.110299999999995
H      44.700000000000003     46.325450000000004     48.410399999999996
H      44.946300000000001     47.615049999999997     46.138400000000004
H      50.257400000000004     49.374350000000007     50.636700000000005
H      51.299999999999997     49.674549999999996     48.263700000000000
