18

C      47.263799999999996     48.149649999999994     48.332749999999983
C      48.696300000000008     47.916249999999991     48.041449999999998
C      46.774500000000003     48.435649999999995     49.659549999999996
C      49.493099999999998     47.723050000000001     49.309049999999999
C      46.393400000000000     48.222149999999999     47.085749999999990
C      48.966099999999997     48.102949999999993     46.551850000000002
C      47.701900000000009     48.050449999999998     50.670749999999998
C      49.156100000000009     47.602750000000000     50.741550000000004
C      46.890700000000010     48.527349999999998     45.757549999999995
C      48.231700000000004     48.165549999999996     45.341650000000001
H      45.905600000000007     48.975949999999997     49.913249999999991
H      50.573200000000000     47.884149999999991     49.014449999999997
H      45.426800000000000     48.476950000000002     47.296250000000001
H      49.969600000000000     48.046750000000003     46.439849999999993
H      47.176699999999997     48.251349999999988     51.500149999999991
H      49.726200000000006     47.024050000000003     51.601849999999999
H      46.254800000000003     48.944049999999990     45.033450000000002
H      48.410200000000003     48.426450000000003     44.398150000000001
