33

C      47.775300000000001     48.284649999999999     48.863199999999992
C      49.065200000000004     48.390750000000004     49.628799999999998
C      50.575400000000009     49.314050000000002     44.413200000000003
C      51.598800000000004     49.805350000000011     45.446399999999997
C      47.876100000000008     48.395250000000011     47.444199999999995
C      50.287600000000005     48.894750000000009     48.932999999999993
C      49.294200000000011     48.928150000000009     45.067899999999995
C      51.443500000000007     49.424250000000008     46.861900000000006
C      49.125300000000003     48.732050000000008     46.567800000000005
C      50.177600000000005     49.211450000000006     47.475399999999993
C      46.696900000000007     47.622650000000000     49.665500000000009
C      47.430600000000005     47.316850000000009     51.041100000000000
C      46.711300000000008     46.523150000000008     52.089799999999997
C      48.700600000000009     47.876650000000005     50.943799999999996
C      46.726800000000004     47.847250000000010     46.798599999999993
C      45.576800000000006     47.547350000000002     47.542199999999994
C      45.537900000000008     47.322949999999999     49.008000000000010
C      50.786999999999999     49.351550000000010     42.969800000000006
C      47.622000000000007     46.392550000000007     53.161200000000008
C      44.569000000000003     46.564450000000001     49.691999999999993
H      52.339599999999997     50.243749999999999     44.825999999999993
H      51.293300000000009     49.230449999999998     49.476800000000011
H      48.366800000000005     48.882650000000005     44.641599999999997
H      52.309400000000004     49.643850000000008     47.453100000000006
H      45.589000000000006     46.457150000000006     52.016199999999998
H      49.564000000000014     47.633749999999999     51.671199999999999
H      46.751200000000004     48.137950000000011     45.787099999999995
H      48.714000000000006     46.398350000000001     53.216099999999997
H      47.217800000000004     45.756250000000001     54.085700000000003
H      44.389000000000003     46.228850000000001     50.710800000000006
H      44.483300000000007     47.425550000000008     47.180300000000003
H      43.660400000000003     45.957550000000005     49.534800000000004
O      50.590100000000014     49.121250000000011     41.914299999999997
