18

C      48.393900499999994     48.753349999999990     47.485449999999986
C      47.629330500000002     47.578549999999993     48.255649999999996
C      47.785450499999996     49.103250000000003     46.143949999999997
C      46.267660499999998     46.985749999999996     47.894349999999996
C      49.658330500000005     49.225049999999996     48.092449999999992
C      48.112080499999998     47.062649999999998     49.562849999999990
C      46.635320499999999     48.497749999999996     45.757449999999999
C      45.851100500000001     47.575149999999994     46.698749999999997
C      49.965470500000002     48.739049999999999     49.409349999999996
C      49.138410499999992     47.842449999999999     50.145649999999996
H      48.017530499999999     49.865150000000000     45.505849999999995
H      45.576980499999998     46.708149999999996     48.735349999999990
H      50.519030500000000     49.733649999999997     47.633049999999990
H      47.630150499999999     46.134850000000000     49.993949999999991
H      46.250790500000001     48.811149999999998     44.774949999999997
H      44.805379500000001     47.654749999999993     46.569349999999993
H      51.194620499999999     49.198650000000001     49.810949999999998
H      49.215980500000001     47.571849999999998     51.225050000000003
