41

C      46.271799999999992     50.771400000000000     48.158999999999999
C      44.851800000000004     50.460800000000006     48.097700000000003
C      46.978900000000003     51.601099999999988     47.110600000000005
C      44.255600000000001     51.113900000000001     46.818900000000006
C      47.930600000000005     50.278599999999997     50.263800000000003
C      44.530999999999999     49.091999999999999     48.707900000000002
C      46.204500000000003     52.477199999999996     46.366400000000006
C      44.747300000000003     52.341800000000006     46.290000000000006
C      46.848300000000009     49.795500000000004     49.162099999999995
C      45.666499999999999     48.919300000000007     49.329600000000006
C      48.202200000000005     49.195899999999995     49.100499999999997
C      49.871500000000012     49.328699999999998     46.757600000000004
C      50.558899999999994     48.270700000000005     47.662000000000006
C      50.461200000000005     43.307800000000000     49.969000000000008
C      50.349100000000007     47.329800000000006     48.979100000000003
C      50.916700000000006     47.176000000000002     50.258099999999999
C      49.812699999999992     46.010900000000007     49.526799999999994
C      49.302999999999997     49.190200000000004     48.041400000000003
C      51.762900000000002     44.037300000000002     50.041000000000011
C      50.736900000000006     44.793099999999995     49.638800000000003
C      49.321200000000005     50.108699999999999     45.508500000000005
H      52.722000000000001     44.528999999999996     50.519700000000000
H      48.844600000000000     45.849800000000002     49.807200000000009
H      52.806500000000000     46.404399999999995     51.366799999999998
H      48.041300000000007     51.721799999999988     46.912900000000008
H      43.193500000000000     51.161199999999994     46.603400000000008
H      47.808300000000003     49.860500000000002     51.295300000000012
H      43.393200000000000     48.855100000000007     48.657800000000002
H      46.531700000000001     53.427899999999994     45.728600000000007
H      43.891700000000000     53.026699999999991     45.574100000000001
H      47.250000000000000     51.161899999999989     50.209100000000007
H      46.002900000000004     48.228800000000007     50.164200000000008
H      52.397400000000005     48.291799999999995     51.336700000000008
H      48.426300000000005     48.298900000000003     49.683499999999995
H      51.509500000000003     47.893100000000004     47.251300000000008
H      50.117699999999999     42.572100000000006     49.112500000000004
H      49.869600000000005     43.271299999999997     50.977000000000004
H      48.151500000000006     49.806399999999996     45.230000000000004
H      50.104900000000001     49.918099999999995     44.633200000000002
H      49.478300000000004     51.259499999999989     45.614600000000003
N      52.036900000000003     47.319900000000004     51.179700000000011
