20

C      48.582799999999999     47.341949999999990     48.368600000000001
C      48.382800000000003     48.175349999999995     47.234999999999999
C      49.475499999999997     46.220749999999995     47.970900000000000
C      48.507199999999997     47.305250000000001     46.092399999999998
C      48.121700000000004     47.717550000000003     49.784499999999994
C      47.567899999999995     49.337050000000005     47.361599999999996
C      46.572500000000005     47.189849999999993     49.395799999999994
C      49.058499999999995     46.121749999999992     46.484600000000000
C      47.037599999999998     48.691749999999999     49.645399999999995
C      47.323300000000003     49.726950000000002     48.721699999999998
C      45.875699999999995     46.894449999999992     48.173199999999994
H      50.392200000000003     45.693650000000005     48.600499999999997
H      47.986400000000003     47.404150000000001     45.194800000000001
H      48.299400000000006     47.080249999999992     50.805199999999999
H      47.482699999999994     50.044449999999998     46.493499999999997
H      46.177199999999999     47.057749999999999     50.405699999999996
H      49.138599999999997     45.200450000000004     45.860600000000005
H      46.819500000000005     48.800650000000005     50.775700000000001
H      47.298400000000001     50.799549999999996     49.110899999999987
O      45.607799999999997     46.383650000000003     47.217500000000001
