8

C      48.994999999999990     47.677844999999991     47.385549999999995
C      47.857399999999998     47.586734999999997     48.418349999999990
C      46.704900000000002     48.241944999999994     48.269349999999989
H      50.064500000000002     48.202534999999990     47.331449999999990
H      45.935499999999998     47.989764999999998     48.735849999999999
H      47.831499999999998     46.839585000000000     49.250050000000002
H      46.572799999999994     49.318064999999997     47.631249999999994
O      48.885899999999999     46.681935000000003     46.749949999999998
