40

C      46.448649999999994     46.806801999999998     47.143699999999995
C      46.772750000000002     46.759967000000003     45.849100000000000
C      50.676850000000002     45.812479999999994     51.123600000000003
C      47.658150000000006     46.277179999999987     48.034799999999997
C      46.407850000000010     45.402580000000007     47.827099999999994
C      50.969250000000002     47.245909000000005     50.354900000000001
C      49.512349999999998     47.590081999999995     49.487200000000009
C      48.704250000000002     46.540180000000021     48.905000000000001
C      49.809550000000002     46.409380000000006     50.104500000000002
C      46.089350000000010     48.114280000000008     47.918799999999997
C      46.136850000000010     49.532700000000006     47.423200000000001
C      46.643450000000001     49.624860000000012     45.994799999999998
C      46.780749999999998     48.242390000000007     45.431100000000001
C      45.522649999999999     47.849490000000003     49.181100000000001
C      45.102550000000008     49.121230000000004     49.826100000000004
C      45.194749999999999     50.527660000000012     49.487500000000004
C      45.723450000000000     50.706580000000002     48.116300000000003
C      45.290150000000011     46.500679999999988     49.625099999999996
C      45.467150000000004     45.250380000000007     49.029800000000002
C      46.813250000000011     50.634020000000007     44.939799999999998
C      47.233150000000009     49.872160000000008     43.697899999999997
C      47.200350000000000     48.440980000000010     44.088400000000000
C      46.690650000000005     45.605480000000007     45.149999999999999
C      50.095450000000000     45.643480000000011     52.765099999999997
H      51.234650000000002     44.843380000000032     50.798099999999998
H      46.536050000000003     44.585680000000025     47.143300000000004
H      50.653350000000003     47.942859999999996     51.215899999999998
H      49.125250000000008     48.440090000000005     50.129200000000004
H      44.765349999999998     48.772470000000006     50.928699999999999
H      45.168850000000006     51.374060000000014     50.208099999999995
H      45.969950000000011     51.664820000000006     47.811299999999996
H      44.809250000000006     46.170780000000015     50.576500000000003
H      45.267150000000001     44.285780000000003     49.420000000000002
H      46.485350000000011     51.714219999999997     44.885200000000005
H      47.390850000000000     50.453420000000008     42.729599999999998
H      47.607750000000010     47.835680000000004     43.554200000000002
H      49.115050000000011     45.042280000000005     52.567399999999999
H      50.271749999999997     46.913803000000001     53.113700000000001
H      50.832750000000004     45.041580000000025     53.270400000000002
O      46.571150000000003     44.712380000000010     44.403700000000001
