18

C      47.940799999999989     48.765950000000004     47.458018499999994
C      48.038899999999998     47.619050000000009     48.412118499999998
C      48.865799999999993     48.827850000000005     46.293368500000000
C      49.262699999999995     46.849550000000001     48.191428500000001
C      46.784099999999995     49.350250000000010     47.118008500000002
C      47.026899999999998     47.502450000000003     49.538818499999998
C      50.142899999999997     48.274850000000008     46.185518500000001
C      50.283999999999999     47.205850000000005     47.187788499999996
C      45.793599999999998     48.953350000000007     48.044848499999993
C      45.726100000000002     48.132050000000000     49.227138500000002
H      48.245100000000008     49.712550000000000     45.733769500000001
H      49.349899999999991     45.861950000000000     48.697188500000003
H      46.697499999999998     50.138050000000000     46.315708500000000
H      47.241199999999999     46.905450000000009     50.384178499999997
H      51.006599999999992     48.521050000000010     45.615821500000003
H      51.151100000000000     46.696050000000007     46.863528500000001
H      44.890500000000003     49.547550000000008     48.142228499999995
H      44.848900000000000     47.869250000000001     49.715558500000000
