18

C      47.711149999999989     47.815949999999987     48.430099999999996
C      48.498350000000002     48.024049999999995     47.213100000000004
C      47.614450000000005     48.860149999999997     49.357499999999995
C      48.958449999999999     49.368050000000004     47.081099999999999
C      46.968549999999993     46.728149999999992     48.842000000000006
C      48.698450000000008     46.643750000000004     46.580900000000000
C      48.251450000000006     50.214049999999993     49.276500000000006
C      48.901150000000001     50.471150000000002     48.073700000000002
C      46.984849999999994     45.558050000000001     47.960700000000003
C      47.829350000000005     45.572550000000000     46.829400000000000
H      46.876850000000005     48.760550000000002     50.244000000000000
H      49.765249999999995     49.568649999999998     46.295700000000004
H      46.396649999999994     46.847349999999999     49.825900000000011
H      49.464749999999995     46.420250000000003     45.756000000000000
H      48.271150000000006     50.990950000000005     50.078700000000005
H      49.450050000000005     51.359850000000002     48.129400000000004
H      46.234750000000005     44.671450000000000     47.997100000000003
H      47.753950000000003     44.640149999999998     46.155799999999999
