20

C      48.415899999999993     46.709388499999996     49.827134999999998
C      47.372300000000010     48.514208499999995     46.165115000000000
C      47.977400000000003     47.390638500000001     47.032214999999994
C      45.946300000000008     48.436208499999999     46.292715000000001
C      46.879100000000008     46.650798500000001     47.800934999999996
C      48.266600000000011     49.657178500000001     45.553714999999997
C      49.342700000000008     47.296568499999999     47.182654999999997
C      45.741100000000003     47.163478499999997     47.105995000000007
C      47.096900000000005     46.777578500000004     49.235235000000003
C      49.628700000000009     49.619818500000001     45.827515000000005
C      50.175100000000015     48.357188499999992     46.504545000000007
H      45.268000000000001     49.315088500000002     46.114784999999998
H      46.728600000000000     45.539031500000000     47.575035000000000
H      47.420100000000005     50.268488500000004     45.397665000000003
H      49.857800000000012     46.674958500000002     47.932034999999999
H      44.896900000000002     46.670538499999999     47.679334999999995
H      46.377700000000004     47.252218499999998     49.782634999999999
H      50.414100000000005     50.460968500000000     45.807334999999995
H      51.103099999999998     48.932158500000000     46.672825000000003
O      49.241900000000001     46.712718500000008     50.602334999999997
