22

C      49.533099999999997     48.550399999999982     50.986199999999990
C      48.769900000000007     47.798499999999990     46.948000000000000
C      47.596200000000003     48.372099999999989     47.893099999999997
C      50.030100000000004     47.165300000000002     47.412100000000002
C      47.891300000000008     48.424700000000001     49.264400000000002
C      48.193000000000005     47.754700000000000     45.648600000000002
C      46.268400000000007     48.718600000000009     47.446399999999997
C      50.252800000000008     47.662899999999993     48.765999999999998
C      49.147700000000007     47.716299999999990     49.689299999999996
C      46.894700000000007     48.049399999999991     45.229500000000002
C      45.908600000000007     48.344600000000000     46.209699999999998
H      48.626800000000003     48.848300000000009     51.473399999999998
H      49.584300000000013     49.401700000000005     50.421399999999998
H      50.347900000000003     48.495099999999994     51.606999999999999
H      50.916499999999999     46.870899999999992     47.001599999999996
H      47.013800000000003     48.002099999999999     49.843199999999996
H      48.834400000000002     47.293700000000001     44.915399999999998
H      45.626500000000007     48.993799999999993     48.362600000000000
H      51.155299999999997     47.683899999999994     49.242500000000000
H      48.970100000000002     46.598299999999995     49.869000000000000
H      46.487500000000004     47.774400000000000     44.393000000000001
H      44.844700000000003     48.302899999999994     46.023499999999999
