118

C      43.086349999999989     51.249849999999995     45.182350000000000
C      46.497349999999997     44.145049999999998     49.326050000000002
C      47.639049999999997     43.831750000000000     48.591950000000004
C      43.283950000000004     51.526550000000000     46.641349999999996
C      47.802750000000003     45.963650000000001     42.944150000000000
C      43.491550000000004     50.330349999999996     44.086350000000003
C      45.842050000000000     45.379850000000005     48.970050000000001
C      46.917850000000001     47.134749999999997     42.654750000000007
C      47.683949999999996     44.214749999999995     47.135350000000010
C      47.921350000000004     45.648650000000004     44.310250000000003
C      45.447850000000003     49.020349999999993     43.382650000000005
C      45.299049999999994     47.121449999999996     47.246550000000006
C      44.749949999999998     49.673050000000003     44.484450000000002
C      46.002349999999993     46.016449999999992     47.664250000000003
C      46.288150000000002     47.829149999999998     43.773650000000004
C      46.945049999999995     45.418549999999996     46.690850000000005
C      45.088949999999997     49.449349999999995     45.968250000000005
C      47.148550000000000     46.263649999999998     45.481350000000013
C      45.690849999999998     48.140450000000001     46.294750000000001
C      46.205749999999995     47.345749999999995     45.189750000000011
C      48.803550000000001     44.110249999999994     46.115250000000003
C      48.704349999999991     44.414450000000002     44.716250000000002
C      41.668350000000004     51.611750000000001     44.996550000000006
C      40.713650000000001     52.162649999999999     45.953650000000003
C      41.241649999999993     52.847449999999995     47.110149999999997
C      42.550849999999997     52.341149999999999     47.503450000000001
C      46.246650000000002     43.479249999999993     50.633150000000001
C      47.009550000000004     42.384249999999994     50.982950000000010
C      48.019849999999991     41.930449999999993     50.189050000000002
C      48.507549999999995     42.751649999999998     49.014649999999996
C      49.793650000000000     42.404849999999996     48.122850000000007
C      50.045950000000005     43.141850000000005     46.688150000000000
C      48.598050000000001     45.310950000000005     42.047650000000004
C      48.351249999999993     45.849850000000004     40.772650000000006
C      47.539850000000001     46.761449999999996     40.132950000000001
C      46.777349999999998     47.558149999999998     41.142150000000001
C      49.660849999999996     44.335250000000002     42.288550000000001
C      49.172650000000004     43.513350000000003     43.453850000000003
C      46.305650000000000     48.925449999999998     40.837150000000001
C      45.534049999999993     49.655749999999998     41.951650000000001
C      46.608850000000004     49.308849999999993     46.815949999999994
C      41.143649999999994     54.449749999999995     46.904450000000004
C      50.519250000000000     45.932850000000002     53.670450000000002
C      51.896550000000005     45.932649999999995     53.842750000000002
C      51.095450000000000     44.655450000000002     48.751150000000003
C      54.093049999999991     45.268550000000005     49.601350000000004
C      50.000749999999996     45.666049999999998     52.433349999999997
C      52.843750000000000     46.115949999999998     52.743050000000004
C      53.059849999999997     45.949249999999992     50.297150000000009
C      50.761049999999997     45.652749999999997     51.193250000000006
C      52.212649999999996     45.826049999999995     51.362850000000002
C      49.617149999999995     46.346350000000001     54.991250000000001
C      49.968450000000004     47.637749999999997     55.778250000000007
C      53.241849999999999     45.050849999999997     53.848350000000003
C      53.198750000000004     43.700350000000000     53.051350000000006
C      50.941450000000003     43.358049999999992     47.951050000000002
C      52.248149999999995     43.647949999999994     48.446949999999994
C      52.766949999999994     45.055549999999997     48.872950000000010
C      55.591650000000001     45.239649999999997     49.453450000000011
C      47.647649999999999     45.163150000000002     53.840250000000005
C      48.048549999999992     46.154849999999996     54.863550000000004
C      48.524249999999995     47.571150000000003     55.087849999999996
C      48.622950000000003     45.050650000000005     52.559750000000001
C      46.032849999999996     45.145650000000003     53.426450000000003
C      49.531049999999993     43.624949999999998     52.565549999999995
C      51.013249999999999     48.273250000000004     56.457650000000008
C      52.499949999999998     42.511849999999995     49.484850000000002
H      44.648449999999997     50.456649999999996     48.184850000000004
H      43.129049999999992     50.477549999999994     42.992650000000005
H      45.131850000000000     45.675449999999998     49.639350000000000
H      44.766549999999995     47.419550000000001     48.108750000000008
H      41.334850000000003     51.347849999999994     43.891650000000006
H      39.626649999999998     52.297749999999994     45.870050000000006
H      40.533549999999991     52.654449999999997     47.917650000000002
H      43.133550000000000     52.754149999999996     48.362550000000006
H      45.588049999999996     43.664050000000003     51.344450000000002
H      46.676950000000005     41.697050000000004     51.937050000000006
H      48.813850000000002     41.204350000000005     50.720250000000000
H      50.334850000000003     41.300150000000002     48.574350000000003
H      50.404650000000004     42.482950000000002     45.791149999999995
H      49.081050000000005     45.142749999999992     40.044950000000007
H      47.643249999999995     47.021349999999998     39.017850000000003
H      50.582250000000002     44.946550000000002     42.426650000000002
H      50.494150000000005     43.703949999999992     41.775450000000006
H      49.854950000000002     42.582549999999998     43.645250000000004
H      48.064750000000004     42.951149999999998     43.196750000000002
H      47.166550000000001     49.573750000000004     40.240850000000002
H      46.052149999999997     49.127650000000003     39.676350000000006
H      44.426149999999993     49.536450000000002     41.918950000000002
H      45.640349999999998     50.832449999999994     41.979450000000007
H      47.693849999999998     49.288349999999994     46.195050000000002
H      46.803550000000001     49.559449999999998     47.889150000000008
H      40.004449999999991     54.750949999999989     46.743750000000013
H      41.944549999999992     54.795649999999995     47.509549999999997
H      53.527249999999995     46.889250000000004     52.821149999999996
H      53.550349999999995     46.945849999999993     50.319850000000002
H      54.189949999999996     45.212249999999997     54.532650000000011
H      53.502150000000000     42.220550000000003     49.464350000000003
H      47.840750000000000     44.027249999999995     54.315250000000006
H      47.512950000000004     45.994950000000003     55.743050000000004
H      47.598050000000001     48.206949999999992     55.633950000000006
H      48.184749999999994     45.207750000000004     51.599950000000000
H      50.528250000000000     43.661050000000003     52.031150000000004
H      45.883749999999992     46.040750000000003     52.802750000000010
H      46.192350000000005     44.025649999999999     52.846650000000004
H      45.277950000000004     44.988349999999997     54.287150000000004
H      48.953249999999997     42.862150000000000     51.985350000000004
H      49.198350000000005     44.762249999999995     49.832250000000009
H      49.537849999999992     43.140749999999997     53.580750000000002
H      51.778049999999993     47.603049999999996     56.918150000000004
H      51.265749999999997     49.410250000000005     56.982149999999997
H      52.915149999999997     42.982749999999996     50.414250000000003
H      51.740949999999998     41.693749999999994     49.731150000000007
H      41.643149999999991     54.602850000000004     45.927050000000001
N      44.178550000000001     50.501649999999998     47.033850000000008
N      50.158950000000004     45.300250000000005     49.872850000000007
O      53.117049999999992     42.751450000000006     52.706450000000011
O      56.373350000000002     45.036149999999992     50.185250000000003
