18

C      48.404149999999994     47.518649999999994     47.236199999999990
C      48.143349999999998     48.616250000000001     48.056199999999997
C      47.410550000000001     46.881049999999995     46.363900000000001
C      46.860950000000003     49.124549999999992     47.996699999999990
C      49.647849999999991     46.688849999999995     47.585099999999997
C      49.114249999999998     49.220349999999989     48.911000000000001
C      46.104349999999997     47.464149999999997     46.448099999999997
C      45.807249999999996     48.442949999999989     47.438199999999995
C      50.342150000000004     47.267149999999994     48.592699999999994
C      50.389049999999997     48.625349999999990     49.333500000000001
H      47.345050000000001     46.036249999999988     45.776199999999996
H      46.610349999999997     49.885249999999992     48.563199999999995
H      49.966749999999990     45.760950000000001     47.209299999999999
H      49.098050000000001     50.239049999999999     49.221499999999992
H      45.260649999999998     47.101049999999994     45.747799999999998
H      44.765850000000000     48.827149999999996     47.442399999999992
H      51.234150000000000     46.673449999999995     48.958500000000001
H      50.739850000000004     48.824849999999991     50.252200000000002
