18

C      48.377299999999991     48.330549999999995     48.518649999999987
C      47.872699999999995     47.557850000000002     47.396949999999990
C      47.665799999999997     49.533249999999995     49.119850000000000
C      46.463400000000000     47.686650000000000     46.881850000000000
C      49.263200000000005     47.801150000000000     49.367549999999994
C      48.657100000000007     46.567850000000000     46.677349999999990
C      46.459999999999994     49.851249999999993     48.549549999999996
C      46.077199999999998     48.968849999999989     47.319249999999997
C      50.089299999999987     46.678150000000002     48.789649999999995
C      49.822399999999995     46.272149999999996     47.391750000000002
H      48.084899999999998     49.887850000000000     50.057350000000000
H      45.689799999999998     46.940950000000001     46.345050000000001
H      49.583900000000000     48.240949999999998     50.315950000000001
H      48.218699999999998     46.066850000000002     45.684049999999999
H      45.731999999999999     50.410950000000000     48.926850000000002
H      45.135700000000000     49.363149999999990     47.011650000000003
H      50.864300000000000     46.074149999999996     49.304850000000002
H      50.471299999999999     45.589050000000000     46.818550000000002
