18

C      47.102449999999990     47.605499999999999     47.869549999999990
C      48.602250000000012     48.022400000000005     48.079050000000002
C      46.854950000000002     46.274900000000002     47.349349999999994
C      49.678049999999999     47.079000000000008     47.770350000000001
C      46.162649999999999     48.769800000000004     48.001349999999995
C      48.695650000000001     49.399500000000003     48.503250000000001
C      48.046050000000008     45.626800000000003     46.994250000000001
C      49.499049999999997     45.900000000000006     47.111550000000001
C      46.249049999999997     50.033600000000007     48.693049999999992
C      47.727850000000004     50.318200000000004     48.772249999999993
H      45.863250000000008     45.948700000000002     47.084749999999993
H      50.739750000000001     47.294700000000006     47.900449999999999
H      45.260249999999999     48.352699999999999     47.823249999999994
H      49.754050000000007     49.850999999999999     48.597949999999990
H      47.678449999999998     44.648099999999999     47.247750000000003
H      50.294650000000004     45.375500000000002     46.923949999999998
H      45.558650000000000     50.528599999999997     49.076050000000002
H      48.162149999999997     51.351900000000001     48.893149999999999
