18

C      48.128684999999990     47.552149999999997     47.292509999999993
C      47.997184999999995     48.550850000000011     48.469989999999996
C      47.375464999999998     47.811849999999993     46.058269999999993
C      47.262824999999999     49.822850000000003     48.149490000000000
C      49.231384999999996     46.573650000000001     47.532079999999993
C      48.752784999999996     48.235150000000004     49.542189999999991
C      46.337354999999995     48.902349999999998     46.110640000000004
C      46.451264999999999     50.040550000000010     47.090900000000005
C      49.743485000000000     46.063350000000000     48.788190000000000
C      49.446584999999992     46.879550000000009     49.780490000000000
H      47.485574999999997     47.543550000000010     45.088610000000003
H      47.040114999999993     50.531250000000000     48.819589999999991
H      49.280084999999993     45.895550000000000     46.483189999999993
H      48.725685000000006     48.974049999999991     50.229889999999997
H      45.742314999999998     48.971750000000000     45.375109999999992
H      45.745274999999999     50.962049999999991     47.045400000000001
H      50.257685000000002     45.037950000000009     48.941589999999991
H      49.611184999999999     46.816550000000007     50.911389999999997
