8

C      47.473799999999997     47.305154999999992     48.853149999999992
C      47.680300000000003     48.805754999999998     48.327150000000003
C      48.119600000000005     48.036544999999990     47.199150000000003
H      46.837500000000006     49.481414999999998     48.122750000000003
H      48.701099999999997     49.135184999999993     48.782750000000000
H      47.758799999999994     47.433534999999992     46.325550000000000
H      49.162499999999994     47.809825000000004     47.292850000000001
O      47.447199999999995     46.518585000000002     49.674450000000000
