18

C      48.636099999999999     48.039799999999993     47.694249999999997
C      47.331200000000003     47.895499999999998     47.944550000000007
C      49.269500000000001     46.745000000000005     47.268550000000005
C      46.620600000000003     46.722999999999999     47.332049999999995
C      49.387200000000000     49.296400000000006     47.712150000000008
C      46.709200000000003     49.099500000000006     48.508049999999997
C      48.573900000000002     45.561300000000003     46.773550000000000
C      47.146700000000003     45.549700000000001     46.744650000000007
C      48.892400000000002     50.363000000000000     48.464550000000003
C      47.471900000000005     50.301100000000005     48.707250000000002
H      50.301500000000011     46.752499999999998     47.307050000000004
H      45.631200000000000     46.539800000000000     47.472250000000003
H      50.368800000000000     49.438299999999998     47.403850000000006
H      45.709800000000001     49.174599999999998     48.599249999999998
H      49.156900000000000     44.674000000000007     46.706050000000005
H      46.463100000000004     44.858099999999993     46.813050000000004
H      49.282800000000002     51.325999999999993     48.810249999999996
H      47.277500000000003     51.200299999999999     49.293949999999995
