42

C      46.876300000000001     45.642299999999992     47.279049999999984
C      44.603800000000007     46.818400000000011     47.027850000000001
C      52.796000000000006     46.507899999999992     46.179349999999999
C      48.929000000000002     51.805899999999994     48.559950000000001
C      51.644599999999997     47.387000000000000     46.522449999999992
C      49.823200000000000     52.325699999999998     47.537949999999995
C      47.995800000000003     44.703199999999995     47.221649999999997
C      46.039000000000001     49.100099999999998     47.621650000000002
C      51.525299999999987     45.982200000000006     46.374649999999988
C      48.280199999999994     50.584299999999999     48.237249999999989
C      51.061999999999998     48.422600000000003     47.003450000000001
C      47.492300000000000     47.005399999999995     47.619949999999989
C      47.347200000000001     48.522999999999996     47.633649999999989
C      48.950299999999999     46.937800000000010     47.432850000000002
C      48.567599999999999     49.363700000000009     47.535650000000004
C      49.635900000000007     48.229800000000012     47.411850000000001
C      49.310400000000001     45.542699999999996     47.165849999999992
C      50.751900000000006     45.114499999999992     47.150149999999996
C      45.664000000000001     50.384100000000004     48.343550000000008
C      46.912299999999988     50.931399999999996     48.908349999999999
C      45.439599999999999     45.644300000000001     46.964349999999996
C      48.296099999999996     43.296800000000005     47.045249999999996
C      44.786600000000007     48.225300000000004     47.452749999999995
C      43.280000000000001     51.783799999999999     46.580649999999991
C      43.230199999999996     51.221900000000005     47.860149999999990
C      51.687500000000000     49.396699999999996     47.758749999999992
C      44.306799999999996     50.883799999999994     48.918149999999997
H      53.753799999999998     45.921300000000002     46.282550000000001
H      48.686800000000005     52.550799999999995     49.398649999999989
H      51.143100000000004     44.123099999999994     47.211249999999993
H      46.827600000000004     51.753500000000003     49.692149999999998
H      44.966099999999997     44.721000000000004     46.588449999999995
H      47.445499999999996     42.864499999999992     46.799149999999997
H      49.250200000000007     42.830200000000005     46.960349999999991
H      43.692300000000003     48.487700000000004     47.653750000000002
H      43.543599999999998     46.862799999999993     46.821050000000000
H      44.208600000000004     52.044200000000004     46.061449999999994
H      42.246200000000002     51.877300000000005     46.273449999999997
H      42.315600000000003     51.239699999999999     48.385349999999988
H      44.266099999999994     51.241200000000006     49.938550000000006
O      52.237200000000001     50.088399999999993     48.471649999999997
O      49.600299999999990     53.169799999999995     46.895150000000001
