43

C      47.443449999999991     50.097899999999996     47.412599999999998
C      47.785250000000005     49.002899999999997     48.343000000000011
C      50.211449999999999     46.066199999999995     46.737100000000005
C      47.784250000000000     49.677199999999999     46.050900000000006
C      49.584949999999999     46.771500000000003     47.975300000000011
C      49.729050000000001     48.295000000000002     45.317500000000003
C      51.044650000000004     46.632700000000000     48.017800000000001
C      48.770949999999999     48.620500000000007     46.368800000000000
C      48.848450000000000     48.036400000000000     47.727600000000002
C      46.705050000000000     51.169399999999996     47.985000000000007
C      46.037750000000003     51.066100000000006     49.299200000000006
C      46.273750000000000     49.739699999999999     49.945799999999998
C      47.002749999999999     48.578400000000002     49.511299999999999
C      46.901449999999997     50.736499999999992     45.224300000000007
C      47.724750000000000     52.161699999999996     45.572800000000008
C      46.775950000000002     52.350400000000008     46.874100000000006
C      49.591349999999998     43.526600000000002     46.349899999999998
C      50.567250000000001     44.548100000000005     46.865100000000005
C      49.219350000000006     52.114199999999997     46.116800000000005
C      45.390250000000002     49.934500000000000     51.272200000000005
C      50.128250000000001     46.585599999999999     49.414000000000009
H      50.717349999999996     46.393400000000000     44.369300000000003
H      49.415549999999996     48.830299999999994     44.464199999999998
H      51.693449999999999     47.575199999999995     47.563600000000001
H      45.261150000000001     51.932500000000005     49.583400000000005
H      47.353049999999996     47.733599999999996     50.193900000000006
H      45.957450000000001     50.810100000000006     45.629300000000008
H      46.944850000000002     50.760999999999996     44.071700000000000
H      47.787649999999999     53.200199999999995     45.214500000000008
H      46.821449999999999     53.367000000000004     47.281700000000008
H      45.654650000000004     52.465400000000002     46.489700000000006
H      51.652550000000005     44.474900000000005     46.787399999999998
H      50.824150000000003     44.054100000000005     47.843300000000006
H      49.869749999999996     52.543999999999997     45.330199999999998
H      49.366950000000003     52.427300000000002     47.132700000000007
H      49.963549999999998     51.196600000000004     46.047699999999999
H      45.214349999999996     49.108999999999995     51.928300000000000
H      45.948350000000005     50.842399999999998     51.559600000000010
H      44.306550000000001     50.278099999999995     50.599000000000011
H      50.057749999999999     47.527699999999996     49.999700000000011
H      49.970550000000003     45.517600000000002     49.735900000000008
N      50.264849999999996     46.986599999999996     45.374400000000001
O      49.064949999999996     42.632999999999996     45.907800000000002
