18

C      48.601499999999987     47.634839999999990     47.517349999999993
C      47.667799999999993     48.684639999999995     48.175649999999997
C      47.871800000000000     46.803460000000001     46.615450000000003
C      46.320900000000002     49.090500000000006     47.673850000000009
C      50.083199999999998     47.588409999999996     47.879950000000001
C      48.228400000000001     49.309579999999997     49.214750000000002
C      46.478100000000005     47.130189999999999     46.312150000000010
C      45.583199999999998     48.105089999999990     46.899350000000005
C      50.541199999999996     48.306659999999994     48.930650000000007
C      49.693999999999996     49.298779999999994     49.590850000000010
H      48.249299999999998     45.918250000000000     46.069350000000007
H      45.841000000000001     49.825789999999998     48.137350000000005
H      50.455099999999995     46.735699999999994     47.438350000000007
H      47.699099999999994     49.968440000000001     49.923150000000000
H      45.970400000000005     46.299090000000000     45.771650000000001
H      44.381999999999998     48.003510000000006     46.649149999999999
H      51.618000000000002     48.166439999999994     49.109050000000003
H      50.128899999999994     50.081750000000000     50.228349999999999
