18

C      48.052999999999997     47.598249999999993     47.215799999999994
C      48.366700000000002     47.645949999999999     48.608199999999997
C      46.997199999999999     46.745750000000001     46.667500000000004
C      47.749600000000008     46.974750000000000     49.815299999999993
C      48.850800000000000     48.147050000000007     46.042800000000000
C      49.563700000000004     48.290350000000004     48.930199999999999
C      46.263800000000003     46.218149999999994     47.762400000000000
C      46.538800000000002     46.610450000000000     49.130700000000004
C      49.530600000000000     49.376450000000006     46.596599999999995
C      49.942700000000009     49.271050000000002     48.069699999999997
H      46.809900000000006     46.553950000000000     45.471599999999995
H      47.888300000000008     47.288349999999994     51.044399999999996
H      48.789099999999998     47.806749999999994     44.955600000000004
H      50.173900000000003     48.226550000000003     49.912399999999991
H      45.209099999999999     45.835149999999999     47.404299999999992
H      45.881000000000007     46.398250000000004     50.020600000000002
H      49.940900000000006     50.164850000000001     46.026499999999999
H      50.790900000000001     49.977750000000000     48.246899999999997
