11

C      48.176299999999998     46.838099999999990     48.183449999999993
C      46.787199999999999     47.711799999999997     48.039749999999991
C      48.095500000000001     48.259299999999996     47.532449999999990
C      49.120000000000005     49.139899999999997     48.390049999999995
H      46.410399999999996     47.443399999999997     49.151949999999992
H      45.659400000000005     48.178700000000006     47.561450000000001
H      48.521999999999991     48.059200000000004     46.536949999999997
H      48.913399999999996     48.905500000000004     49.463050000000003
H      50.340599999999995     48.928500000000000     48.228649999999995
H      48.794099999999986     50.164000000000001     48.178249999999998
O      48.352399999999989     45.835999999999999     47.647050000000000
