5

C      48.236849999999997     48.101999999999990     48.179149999999993
H      48.549350000000004     49.000100000000003     47.567449999999994
H      47.030349999999999     48.260400000000004     48.276550000000000
H      48.969650000000001     48.307100000000005     48.841449999999995
H      48.044449999999998     46.999899999999997     47.158550000000005
