18

C      48.415499999999994     47.653789999999987     47.110149999999997
C      47.880900000000004     48.084190000000000     48.463650000000001
C      48.395699999999998     48.687390000000001     46.250749999999996
C      47.222500000000004     49.344289999999994     48.605550000000008
C      48.801300000000005     46.326189999999997     46.560950000000005
C      47.838000000000001     46.955989999999993     49.467349999999996
C      47.562700000000000     49.881790000000002     46.434849999999997
C      47.126899999999999     50.401689999999995     47.706750000000000
C      49.299900000000001     45.660909999999994     47.675049999999999
C      48.625300000000003     45.867389999999993     49.080449999999999
H      48.865000000000002     48.439689999999992     45.232450000000000
H      46.752600000000001     49.320689999999992     49.578249999999997
H      49.027099999999997     46.169089999999997     45.611449999999998
H      47.482700000000001     47.357289999999999     50.767550000000000
H      47.612200000000001     50.514589999999991     45.560150000000000
H      46.466799999999999     51.287990000000001     47.820549999999997
H      49.533200000000001     44.712009999999999     47.537350000000004
H      48.537699999999994     45.002429999999997     49.628450000000001
