18

C      48.531984999999992     48.543849999999992     47.767049999999998
C      47.237285000000000     48.227350000000008     48.380450000000003
C      49.548154999999994     47.802050000000001     47.040849999999999
C      47.845614999999995     45.834150000000001     49.352749999999993
C      48.574015000000003     49.888750000000009     48.155049999999996
C      47.008515000000003     46.984650000000009     49.205449999999992
C      49.730345000000000     46.311450000000001     47.432650000000002
C      49.124064999999987     45.562750000000001     48.445649999999993
C      47.299934999999991     50.456049999999998     48.772749999999995
C      46.452635000000001     49.247250000000001     48.925949999999993
H      50.255414999999985     48.336350000000003     46.406749999999995
H      47.035004999999998     45.025449999999999     49.593250000000005
H      49.453715000000003     50.457749999999997     47.661250000000003
H      46.072935000000001     46.745150000000002     49.272150000000003
H      50.344155000000001     45.679850000000009     46.815649999999998
H      49.049774999999997     44.525950000000002     48.820950000000003
H      47.032964999999990     51.474049999999998     49.048949999999998
H      45.655844999999999     49.205550000000009     49.555950000000003
