8

C      48.523649999999989     47.464599999999990     47.720399999999991
C      47.312650000000005     48.182499999999997     48.571100000000001
H      47.135949999999994     49.358100000000000     48.654499999999999
H      48.757649999999998     47.936599999999999     46.785100000000000
H      47.978849999999994     46.641900000000000     47.050799999999995
H      49.325450000000004     47.041599999999995     48.250799999999998
H      46.674549999999996     48.382399999999997     47.853600000000000
H      46.742450000000005     47.335199999999993     49.214900000000000
