18

C      48.456949999999992     47.549999999999997     47.143649999999987
C      48.052550000000004     47.950100000000006     48.605949999999993
C      49.055150000000005     48.636300000000013     46.369649999999993
C      48.640650000000001     49.149300000000004     49.053749999999994
C      48.008549999999993     46.158300000000004     46.829750000000004
C      47.563250000000004     47.023500000000006     49.616950000000003
C      49.333049999999993     50.000000000000007     46.901949999999999
C      49.337449999999997     50.148700000000005     48.366150000000005
C      46.965550000000000     45.375400000000006     47.665649999999999
C      46.852449999999997     45.912400000000005     49.028649999999999
H      49.169949999999993     48.586800000000004     45.398849999999996
H      48.439450000000001     49.446900000000007     50.032849999999996
H      48.241949999999996     45.817000000000000     45.944350000000000
H      47.477049999999998     47.171200000000006     50.601150000000004
H      49.906849999999999     50.842899999999993     46.301249999999996
H      49.513249999999992     51.179800000000000     48.887749999999997
H      46.093150000000001     44.820200000000000     47.338350000000005
H      46.556350000000002     45.276300000000006     50.093249999999998
