6

C      48.080299999999994     47.957519999999995     47.227794999999986
C      48.021200000000000     47.866509999999998     48.661815000000004
H      48.511400000000002     47.237780000000001     46.538105000000002
H      47.874699999999997     48.794809999999998     46.911015000000006
H      47.488599999999998     48.897710000000004     49.164815000000004
H      48.251700000000007     47.102289999999996     49.461894999999998
