21

C      50.351449999999993     49.810949999999991     46.270244999999989
C      47.652349999999998     47.686549999999997     47.831744999999991
C      46.820049999999995     48.638750000000002     48.680044999999986
C      47.586449999999999     46.180450000000008     47.807444999999994
C      45.931150000000002     47.963850000000008     49.645291999999991
C      48.718149999999994     47.938350000000000     46.821744999999986
C      47.441350000000000     49.962450000000004     48.623544999999986
C      46.588650000000001     45.679050000000004     48.715644999999988
C      45.706649999999996     46.526350000000008     49.569763999999999
C      48.926149999999993     49.292950000000005     46.859244999999994
C      48.392449999999997     50.380150000000000     47.603344999999997
H      50.724649999999997     49.074750000000009     45.452544999999994
H      50.728149999999999     49.463050000000010     47.228344999999997
H      48.273550000000000     45.451250000000002     47.527344999999990
H      45.895749999999992     48.735150000000004     50.523055000000006
H      49.681449999999998     47.196150000000003     46.601844999999990
H      47.019849999999991     50.742950000000008     49.167404999999995
H      46.383650000000003     44.743949999999998     48.725344999999997
H      45.271850000000001     46.229650000000007     50.547455000000006
H      50.192650000000000     50.897550000000010     46.254944999999985
H      48.910849999999996     51.256050000000002     47.732644999999984
