18

C      48.555399999999999     48.415199999999999     47.382199999999997
C      47.261499999999998     47.747900000000001     47.617100000000008
C      48.796900000000008     49.779899999999998     47.860299999999995
C      45.981999999999999     48.469000000000008     48.106700000000004
C      49.783500000000004     47.503000000000000     47.131900000000002
C      47.378900000000002     46.314400000000006     47.904100000000000
C      47.651600000000002     50.403900000000007     48.512900000000002
C      46.254300000000001     49.802300000000002     48.354699999999994
C      50.048600000000008     46.138300000000001     47.270700000000005
C      48.701000000000008     45.629500000000007     47.597900000000010
H      49.848399999999998     50.046000000000006     47.939300000000003
H      44.969899999999996     48.026600000000002     48.480400000000003
H      50.634900000000002     48.226200000000006     46.887200000000007
H      46.850499999999997     45.516100000000009     47.981400000000008
H      47.814400000000006     51.370599999999996     49.046700000000001
H      45.813600000000008     50.756799999999998     49.137999999999991
H      51.030100000000004     45.583300000000008     46.862000000000009
H      48.643500000000003     44.629400000000004     47.500900000000001
