18

C      48.003199999999993     47.913599999999988     47.582449999999994
C      47.824999999999996     48.588700000000003     48.658550000000005
C      48.517800000000001     48.567100000000011     46.417050000000003
C      48.233700000000006     49.915999999999997     48.907049999999998
C      47.971200000000003     46.445099999999996     47.470649999999992
C      46.981299999999997     47.799099999999996     49.678749999999994
C      49.010100000000001     49.918999999999997     46.581649999999996
C      48.945699999999995     50.576000000000008     47.821749999999994
C      47.430100000000003     45.644500000000008     48.495849999999990
C      46.901900000000005     46.520499999999998     49.609949999999998
H      48.386500000000005     47.853499999999997     45.481750000000005
H      47.851300000000002     50.243600000000001     49.876249999999985
H      48.268200000000000     45.796599999999998     46.648550000000000
H      46.546600000000005     48.354399999999998     50.518249999999995
H      49.681300000000000     50.310500000000005     45.987949999999998
H      49.702999999999996     51.432100000000005     47.970150000000004
H      47.556699999999999     44.567899999999995     48.722949999999997
H      46.297000000000004     45.884299999999996     50.446950000000001
