18

C      47.839699999999993     47.491749999999996     48.643349999999991
C      47.715800000000002     48.651949999999999     47.643450000000001
C      46.722700000000003     46.692850000000000     48.390250000000009
C      46.783500000000004     49.129449999999999     46.648850000000010
C      48.922899999999998     46.854250000000000     49.305850000000007
C      49.058799999999998     49.237950000000005     47.606150000000000
C      45.840000000000003     46.833150000000003     47.295749999999998
C      45.610300000000002     48.178450000000005     46.738550000000004
C      50.262500000000003     47.494050000000009     49.121949999999998
C      50.278399999999998     48.525849999999998     48.069550000000007
H      47.034399999999998     45.840049999999998     49.113950000000003
H      46.854399999999998     50.073650000000001     46.214250000000007
H      48.832300000000011     45.944049999999997     50.024349999999998
H      48.902099999999997     50.159950000000002     46.990450000000010
H      45.466799999999999     45.901550000000000     47.254850000000005
H      44.833500000000001     48.278250000000000     45.975650000000002
H      50.730100000000000     46.532950000000000     49.607650000000007
H      51.166499999999999     49.107849999999999     47.726349999999996
