18

C      47.439299999999989     48.286899999999996     48.055699999999987
C      48.456400000000002     47.465800000000002     48.686400000000006
C      46.424199999999999     47.930700000000002     47.063699999999997
C      48.347499999999997     46.120500000000000     48.141000000000005
C      47.421800000000005     49.659300000000002     48.364699999999999
C      49.554900000000004     48.075700000000005     49.418200000000013
C      46.513599999999997     46.683200000000006     46.386899999999997
C      47.437600000000003     45.754200000000004     47.025499999999994
C      48.532000000000011     50.241600000000005     49.123000000000005
C      49.552499999999995     49.460000000000001     49.856200000000001
H      45.589600000000004     48.473500000000001     46.943799999999996
H      49.354500000000002     45.668400000000005     48.132500000000007
H      46.677499999999995     50.472500000000011     48.228099999999998
H      50.017200000000003     47.351200000000006     49.973900000000000
H      45.638900000000007     46.124100000000006     45.702299999999994
H      47.614400000000003     44.804000000000002     46.462400000000002
H      48.203900000000004     51.195999999999998     49.413600000000002
H      50.410399999999996     49.933200000000014     50.297700000000006
