18

C      47.148199999999989     48.690299999999993     48.859799999999993
C      48.619200000000006     48.749199999999995     48.568700000000000
C      46.768400000000000     47.666000000000004     49.793100000000003
C      49.700800000000001     48.016900000000000     49.071600000000011
C      46.140900000000002     49.080500000000008     47.871699999999997
C      48.734100000000012     49.567100000000003     47.314300000000003
C      47.782800000000009     46.741999999999997     50.183900000000001
C      49.157200000000003     47.154999999999994     50.006400000000006
C      46.443100000000001     49.562199999999997     46.563899999999997
C      47.835899999999995     49.890999999999998     46.205399999999997
H      45.735799999999998     47.582200000000000     50.077700000000000
H      50.810500000000005     48.338600000000000     48.968400000000003
H      45.189499999999995     48.940099999999994     48.117500000000000
H      49.612500000000011     49.521300000000004     46.650599999999997
H      47.548299999999998     45.844400000000000     50.750300000000003
H      49.931100000000001     46.594000000000001     50.581700000000005
H      45.682100000000005     49.996900000000004     45.997100000000003
H      48.165800000000004     50.155600000000000     45.249699999999997
