18

C      47.654049999999998     48.013099999999994     48.261200000000002
C      48.708549999999995     47.792800000000007     47.183300000000010
C      47.542250000000003     49.350700000000003     48.870400000000011
C      49.248350000000002     48.919000000000004     46.617899999999999
C      46.871850000000002     46.858700000000006     48.675300000000000
C      49.415050000000001     46.639699999999998     46.985800000000005
C      47.683950000000003     50.493699999999997     47.951600000000006
C      48.480250000000005     50.189000000000000     46.750700000000002
C      47.383550000000000     45.519799999999996     48.372199999999999
C      48.541549999999994     45.518300000000004     47.610300000000002
H      47.338349999999998     49.392400000000002     49.954000000000001
H      50.118749999999999     48.687100000000008     46.045999999999999
H      45.881250000000001     47.206200000000003     49.305000000000000
H      50.107850000000006     46.434600000000003     46.266900000000000
H      47.667349999999999     51.479199999999999     48.312400000000004
H      48.753250000000001     51.078099999999999     46.289400000000008
H      46.862549999999999     44.520800000000001     48.778900000000000
H      48.885150000000003     44.581899999999997     47.544800000000002
