18

C      48.195289999999993     47.183999999999997     47.851149999999997
C      48.007390000000001     48.575400000000002     47.805650000000000
C      47.094790000000003     46.348399999999998     47.462049999999998
C      46.846390000000000     49.215699999999984     47.489649999999997
C      49.425620500000008     46.679900000000004     48.218549999999993
C      48.865290000000002     49.723799999999997     48.333150000000003
C      46.061290000000000     46.989199999999997     46.809550000000002
C      45.798590000000004     48.454899999999995     46.737450000000003
C      50.277637000000006     47.687100000000001     48.951849999999993
C      50.158942000000010     49.143899999999988     48.663150000000002
H      46.980490000000003     45.316000000000003     47.688749999999999
H      46.543189999999996     50.147899999999993     47.860750000000003
H      49.649326000000002     45.757400000000004     48.259850000000000
H      48.610789999999994     50.683999999999997     48.039949999999990
H      45.347589999999997     46.425200000000004     46.411050000000003
H      44.950789999999998     48.987600000000000     46.301349999999999
H      51.049210000000002     47.802399999999992     49.698650000000001
H      50.823690000000006     49.813800000000001     49.264650000000003
