16

C      48.458249999999992     48.171984999999985     47.728699999999989
C      47.160750000000000     47.615884999999992     48.061999999999998
C      48.671450000000000     48.067884999999990     46.289900000000003
C      46.826250000000002     46.753384999999994     46.892000000000010
C      49.229049999999994     48.946131000000008     48.742300000000000
C      46.655650000000001     47.914684999999992     49.455399999999997
C      47.654949999999999     47.087084999999988     45.847900000000010
C      48.640949999999997     49.532285000000002     49.860799999999998
C      47.455549999999995     48.784608599999999     50.317800000000005
H      49.496850000000002     48.482484999999997     45.615600000000001
H      46.172750000000001     45.905684999999991     46.887000000000000
H      50.114249999999998     49.458606000000003     48.633099999999999
H      45.885750000000002     47.314384999999987     50.028999999999996
H      47.662450000000000     46.685284999999993     44.824799999999996
H      49.235749999999996     50.094315000000009     50.543400000000005
H      47.065950000000001     48.861062000000004     51.175200000000004
