18

C      47.497999999999998     47.974099999999993     47.778699999999994
C      48.426900000000003     47.891399999999997     48.898700000000005
C      47.785800000000009     47.194800000000008     46.585000000000008
C      48.793400000000005     46.541400000000003     49.258099999999999
C      46.608800000000002     49.144500000000001     47.611100000000008
C      48.865300000000005     49.065300000000001     49.694100000000006
C      48.340699999999998     45.870899999999999     46.847000000000008
C      48.535400000000010     45.530300000000004     48.280000000000001
C      46.905900000000003     50.227400000000010     48.538800000000009
C      48.088200000000001     50.187600000000010     49.472700000000003
H      47.505400000000009     47.399200000000000     45.544899999999998
H      49.605300000000000     46.208500000000008     50.046500000000009
H      46.394700000000000     49.767299999999999     46.712200000000010
H      49.602600000000010     49.142400000000002     50.455100000000002
H      48.760700000000000     45.184500000000007     46.115000000000009
H      48.838400000000007     44.613599999999998     48.609400000000008
H      46.671800000000005     51.386400000000002     48.249499999999998
H      48.261200000000002     51.131100000000011     50.066200000000009
