70

C      52.369249999999994     48.785549999999994     44.143849999999993
C      52.085349999999998     49.277850000000001     45.544950000000000
C      46.716850000000001     42.182350000000000     49.229150000000004
C      47.176949999999998     42.199950000000001     47.883550000000000
C      51.472850000000001     48.530550000000005     43.029449999999997
C      50.761249999999997     48.951949999999997     46.107450000000000
C      46.451149999999991     43.253650000000000     50.066150000000000
C      47.555149999999990     43.407950000000000     47.239149999999995
C      47.442249999999994     46.988950000000003     48.352449999999990
C      50.050849999999990     48.188850000000002     42.954650000000001
C      46.328449999999997     45.576650000000001     50.113650000000000
C      46.112249999999996     49.069249999999997     51.023049999999998
C      47.989349999999995     45.855750000000000     45.839849999999998
C      49.664650000000002     48.085350000000005     45.524050000000003
C      49.463349999999998     47.805949999999996     44.239350000000002
C      46.808749999999996     44.467349999999996     49.324849999999998
C      46.498249999999992     47.818449999999999     50.713349999999998
C      48.504849999999998     47.131950000000003     45.267450000000011
C      46.840449999999997     46.886550000000000     49.681250000000006
C      47.515549999999998     44.687950000000001     47.921750000000003
C      47.720750000000002     45.989150000000002     47.230249999999998
C      47.911549999999998     43.310249999999996     45.677549999999997
C      47.461649999999999     44.606349999999999     45.023450000000011
C      45.965150000000001     48.165950000000002     52.106850000000001
C      47.606850000000001     42.239049999999999     44.598350000000011
C      48.911349999999992     42.142650000000003     43.593950000000000
C      50.510649999999991     49.277050000000003     47.671149999999997
C      46.289049999999996     50.464150000000004     49.251750000000001
C      46.361550000000001     52.530550000000005     46.284250000000000
C      45.854449999999993     51.192149999999998     46.533050000000003
C      47.499949999999991     53.032449999999997     45.637250000000009
C      47.035350000000001     50.246850000000009     46.753150000000005
C      45.506250000000001     53.859049999999996     46.626950000000001
C      44.549149999999990     51.149050000000003     47.020450000000011
C      48.370649999999991     51.861649999999997     45.320549999999997
C      48.078849999999996     50.593150000000001     45.858150000000009
C      44.220949999999995     53.752650000000003     47.368050000000004
C      43.738049999999994     52.410449999999997     47.475250000000003
H      45.697349999999993     49.021749999999997     53.901150000000001
H      53.202649999999998     48.569950000000006     43.658749999999998
H      52.830750000000002     49.595650000000006     46.327950000000001
H      46.724349999999994     41.253250000000001     49.693049999999999
H      47.193750000000001     41.139550000000000     47.519350000000003
H      52.086449999999992     48.159050000000001     42.213149999999999
H      46.051849999999995     43.280149999999999     51.053950000000000
H      48.192850000000000     47.673050000000003     48.166049999999998
H      49.424249999999994     48.319350000000000     42.098849999999999
H      45.407750000000000     45.579149999999998     50.605049999999991
H      48.995049999999999     43.358550000000001     45.839050000000000
H      47.853050000000003     44.743750000000006     43.993650000000002
H      46.319449999999996     44.688450000000003     44.895349999999993
H      46.550049999999992     41.964050000000000     44.541750000000008
H      48.236849999999997     41.426650000000002     45.168550000000010
H      48.853050000000003     42.927149999999997     42.718750000000000
H      48.927950000000003     41.228549999999998     42.860750000000003
H      49.859549999999992     42.245750000000001     43.925750000000001
H      50.478149999999992     48.279949999999999     48.257950000000001
H      51.223750000000003     49.903350000000003     48.132050000000000
H      49.552050000000001     49.916350000000001     47.682850000000002
H      47.671149999999990     54.133349999999993     45.242149999999995
H      46.893949999999997     49.106049999999996     46.794049999999999
H      45.764749999999999     54.860450000000000     46.211150000000004
H      44.088450000000002     50.023449999999997     47.345749999999995
H      49.321249999999999     52.222750000000005     45.031849999999999
H      48.918749999999996     49.760750000000002     45.639150000000001
H      43.774849999999994     54.686149999999998     47.898850000000010
H      42.797350000000002     52.604550000000003     48.139749999999999
O      46.264249999999997     48.201350000000005     53.488849999999999
O      47.157949999999992     50.515649999999994     48.375150000000005
O      45.601849999999992     50.368350000000000     50.278450000000007
