9

C      46.957744999999996     46.956849999999989     46.325349999999986
C      48.209985000000010     46.820850000000000     47.226249999999993
C      47.035711000000006     47.309149999999995     47.852250000000012
C      48.140725000000003     47.885649999999991     48.302750000000003
C      48.701575000000005     48.321549999999995     49.753749999999997
H      48.568325000000002     49.450650000000003     49.988150000000005
H      49.762455000000003     47.951050000000002     49.782550000000001
H      48.204645000000014     47.487749999999998     50.570549999999997
O      46.237544999999997     46.549349999999997     45.429450000000003
