18

C      47.986099999999986     48.300349999999987     47.285249999999991
C      48.151700000000005     47.778349999999996     48.623749999999994
C      48.782700000000006     48.561349999999990     46.080149999999996
C      49.383399999999995     46.871949999999998     48.381750000000004
C      46.753100000000003     49.226649999999992     47.027250000000002
C      47.309500000000000     48.172349999999994     49.716150000000006
C      50.121499999999997     48.228549999999998     46.389249999999997
C      50.350999999999999     47.254149999999996     47.422849999999990
C      45.617800000000003     49.175649999999997     48.012050000000009
C      45.993399999999994     48.634150000000005     49.260749999999994
H      48.385199999999998     49.120750000000001     45.296450000000000
H      49.563000000000002     46.332149999999999     49.216550000000005
H      46.602800000000002     49.614549999999994     46.037349999999996
H      47.499300000000005     47.885149999999996     50.703550000000000
H      50.751800000000003     48.765449999999987     45.957450000000001
H      51.440600000000003     46.976450000000000     47.505549999999999
H      44.559399999999997     49.667850000000001     48.037950000000002
H      45.226100000000002     48.820350000000005     50.119050000000001
