17

C      49.144284999999996     47.933049999999994     46.701599999999999
C      48.398965000000004     48.717850000000013     47.782399999999996
C      49.101284999999997     46.456150000000008     46.724100000000007
C      48.315525000000001     47.747350000000012     48.793499999999995
C      49.516314999999999     49.258550000000000     46.710899999999995
C      47.191295000000004     49.594250000000002     47.833299999999994
C      48.607305000000004     45.553049999999999     47.869399999999999
C      48.358795000000001     46.311250000000001     49.078000000000003
C      49.012365000000003     50.598650000000006     46.514799999999994
C      47.716594999999998     50.713250000000016     47.149299999999997
H      49.638905000000001     45.778649999999999     46.009100000000004
H      48.349505000000001     48.523050000000012     49.493799999999993
H      46.361094999999999     49.645550000000000     48.378899999999987
H      48.566515000000003     44.374650000000003     47.779299999999992
H      48.042774999999999     45.845850000000013     49.990899999999996
H      49.374085000000001     51.455849999999998     46.117400000000004
H      47.062865000000002     51.625349999999997     46.957499999999996
