54

C      44.506299999999996     49.281399999999991     48.476299999999981
C      45.290499999999994     49.317699999999995     49.725999999999999
C      48.787599999999998     49.614199999999990     45.816499999999991
C      49.495599999999996     49.335100000000004     47.153099999999995
C      45.318199999999990     48.961599999999997     47.303599999999989
C      46.893799999999985     49.187499999999993     49.732299999999995
C      47.442499999999995     49.255099999999999     45.840099999999993
C      48.839499999999987     49.204699999999995     48.434500000000000
C      46.715299999999985     49.199399999999997     46.994599999999991
C      47.507400000000004     49.341000000000001     48.406099999999995
C      43.106700000000004     49.436500000000002     48.316299999999998
C      42.481999999999999     49.102799999999995     49.697999999999993
C      44.515399999999985     49.049199999999999     50.959399999999988
C      49.777900000000002     49.859499999999990     44.652799999999999
C      51.169699999999992     49.536899999999996     44.875799999999998
C      51.605499999999992     48.821999999999996     46.077999999999989
C      50.893199999999993     48.821099999999994     47.281399999999991
C      42.301000000000002     48.696300000000001     47.363399999999999
C      42.336299999999994     50.479499999999994     48.937500000000000
C      41.108099999999993     48.172699999999999     48.167999999999992
C      41.354900000000001     48.071399999999997     49.549499999999995
C      42.816299999999998     49.028799999999997     45.977300000000000
C      53.782100000000000     48.385799999999996     49.019499999999994
C      53.942599999999999     46.915399999999998     48.849099999999993
C      54.547200000000004     47.636499999999998     46.690099999999987
C      54.414999999999992     46.453699999999998     47.587399999999988
C      53.483399999999989     49.350400000000000     50.078599999999994
C      53.253699999999995     46.317299999999996     49.998000000000005
C      53.173500000000004     48.379599999999996     46.301399999999987
C      53.973100000000002     48.827799999999996     47.449099999999987
C      52.969899999999996     48.529599999999995     51.236000000000004
C      52.803799999999995     47.174399999999999     50.996799999999993
H      44.886699999999990     48.843499999999999     46.274999999999991
H      47.632299999999987     49.212200000000003     50.557099999999991
H      46.924499999999995     49.129299999999994     44.757399999999990
H      49.329300000000003     49.075499999999998     49.448799999999991
H      45.170499999999990     48.799100000000003     51.728199999999987
H      49.507899999999992     50.328299999999992     43.697999999999993
H      52.082299999999989     49.646799999999999     44.032399999999996
H      51.198799999999991     48.353499999999997     48.406699999999987
H      41.570899999999995     50.882600000000004     48.493399999999994
H      40.490700000000004     47.486199999999997     47.581699999999998
H      40.710200000000000     47.654800000000002     50.401399999999995
H      55.509299999999996     47.908499999999997     46.103199999999987
H      54.781799999999990     45.442799999999998     47.155199999999994
H      53.895099999999999     50.295600000000000     49.965299999999999
H      53.073599999999985     45.117399999999996     50.168299999999988
H      53.345100000000002     48.870500000000000     45.245499999999993
H      54.590499999999992     49.865500000000004     47.378899999999987
H      52.518199999999993     48.985399999999998     52.199999999999989
H      52.181399999999996     46.573099999999997     51.717099999999988
H      42.816999999999993     48.908200000000001     52.302000000000007
N      43.181100000000001     49.226799999999997     51.270700000000005
O      43.026499999999999     49.380899999999997     44.937899999999999
