47

C      43.914049999999996     45.574649999999991     47.838099999999997
C      45.713549999999998     44.058650000000000     47.706900000000005
C      45.966949999999997     45.765549999999998     49.130499999999998
C      44.691049999999990     46.439850000000000     48.679700000000004
C      46.445950000000003     46.925850000000004     50.089300000000001
C      44.153250000000000     47.916649999999997     48.609900000000003
C      51.273449999999997     50.510449999999999     47.573200000000000
C      48.815650000000005     48.100050000000003     49.286200000000001
C      51.067149999999998     49.378350000000005     48.677300000000002
C      46.586350000000010     48.764649999999996     48.113399999999999
C      50.438149999999993     51.682949999999998     47.001800000000003
C      46.761049999999997     50.576649999999994     46.270200000000003
C      48.027949999999997     51.026649999999997     45.618600000000001
C      49.530249999999995     49.235250000000001     48.582100000000004
C      47.246849999999995     49.735250000000001     47.286700000000003
C      49.242150000000009     50.981850000000001     46.573399999999999
C      48.664050000000003     49.902350000000006     47.610199999999999
C      49.559049999999999     46.850050000000003     48.841799999999999
C      49.319850000000002     47.565750000000001     50.460500000000003
C      52.075450000000004     48.799450000000000     49.403699999999994
C      45.160150000000002     48.791249999999998     47.598900000000000
C      44.706649999999996     50.130649999999996     47.352400000000003
C      45.323450000000001     50.560949999999998     45.818200000000004
H      46.227350000000001     43.440249999999999     46.939399999999999
H      43.034649999999999     46.037349999999996     47.397900000000000
H      47.029350000000008     46.418950000000002     51.102100000000000
H      45.708649999999999     47.371649999999995     50.692999999999991
H      44.273949999999999     48.234450000000002     49.653100000000002
H      42.965949999999999     47.742849999999997     48.269799999999996
H      52.339650000000006     50.421749999999996     47.626400000000004
H      50.629150000000010     52.559750000000001     46.260899999999999
H      47.896450000000002     51.994250000000001     45.020099999999999
H      50.092550000000003     47.248649999999998     47.832200000000000
H      49.011850000000003     45.747750000000003     48.783499999999997
H      48.771349999999998     46.922850000000004     51.065300000000001
H      50.352649999999997     48.016349999999996     50.927300000000002
H      53.034050000000001     49.057350000000007     49.230600000000003
H      51.959850000000003     47.821649999999998     49.887300000000003
H      45.047849999999997     48.076349999999998     46.806300000000000
H      43.517350000000000     50.308950000000003     47.479599999999998
H      44.927650000000000     50.734749999999998     48.174799999999998
H      45.042949999999990     51.484149999999993     45.199600000000004
H      44.991950000000003     49.955149999999996     44.897900000000000
H      43.523949999999999     43.911849999999994     46.729199999999999
N      44.333449999999999     44.370349999999995     47.328000000000003
N      46.469250000000002     44.588349999999998     48.640200000000000
N      47.209249999999997     48.047750000000001     49.189700000000002
