18

C      48.049799999999991     48.486549999999994     48.336249999999993
C      48.338499999999989     47.444449999999996     47.427550000000004
C      47.743899999999989     49.845649999999999     47.770750000000000
C      48.031299999999995     47.485350000000004     45.978549999999998
C      47.971399999999996     48.497549999999997     49.721950000000000
C      48.499099999999991     46.191449999999996     48.133150000000001
C      47.585499999999989     50.030850000000001     46.325949999999999
C      47.623799999999996     48.702750000000002     45.508049999999997
C      48.384999999999998     47.221049999999998     50.519749999999995
C      48.628599999999999     46.129249999999999     49.579649999999994
H      47.644099999999987     50.660750000000000     48.344249999999995
H      48.076999999999991     46.522750000000002     45.454850000000000
H      48.021399999999993     49.360949999999995     50.412250000000000
H      48.653299999999994     45.190950000000001     47.561250000000001
H      47.618099999999991     51.015449999999994     45.733950000000000
H      47.070000000000000     48.750750000000004     44.621350000000000
H      47.803099999999993     47.194049999999997     51.378650000000000
H      48.930000000000000     44.984550000000006     49.996150000000000
