36

C      46.125764999999987     48.707834999999989     48.840449999999997
C      46.034865000000003     47.338954999999999     49.330250000000007
C      45.261564999999997     49.730205000000012     49.508049999999997
C      45.431665000000002     46.849945000000005     50.511150000000001
C      46.570765000000002     49.180725000000010     47.351150000000004
C      46.363864999999997     46.486495000000005     48.098849999999999
C      44.683164999999995     49.404715000000010     50.688150000000007
C      44.811664999999998     48.025194999999997     51.247349999999997
C      46.587865000000001     48.139595000000000     46.163250000000005
C      46.259464999999999     46.823355000000006     46.748350000000002
C      49.863464999999998     47.853535000000008     47.040350000000004
C      49.470684999999996     48.512245000000007     45.791649999999997
C      50.582785000000008     48.629114999999999     48.081550000000007
C      49.992205000000006     48.179995000000005     49.327150000000003
C      50.843945000000012     47.900385000000000     46.061449999999994
C      48.566186000000009     48.684645000000003     44.600549999999998
C      45.365164999999998     49.145905000000013     46.325950000000006
C      47.284865000000003     48.398854999999998     44.813749999999999
C      49.143395000000005     46.702285000000003     47.547550000000001
C      49.015315000000008     47.123035000000002     48.919250000000005
H      45.295764999999996     50.719745000000003     49.255849999999995
H      45.418365000000001     45.814245000000000     50.880650000000003
H      46.758064999999995     50.155425000000008     47.226650000000006
H      46.337165000000006     45.280254999999997     47.952749999999995
H      44.110864999999997     50.182235000000006     51.212850000000003
H      44.537765000000000     47.958795000000009     52.294049999999999
H      44.443764999999992     48.557445000000001     46.721149999999994
H      46.404564999999998     46.117225000000005     45.850949999999997
H      50.938364999999997     49.731175000000007     47.837050000000005
H      49.919855000000005     48.893185000000003     50.058149999999998
H      51.889135000000003     47.389435000000006     45.716549999999998
H      48.861473000000004     49.043175000000005     43.705950000000001
H      44.727465000000002     49.849575000000002     45.891449999999999
H      46.432165000000005     48.506365000000002     44.016050000000000
H      48.502637999999997     46.112544999999997     47.098250000000007
H      48.383427000000005     46.533815000000004     49.717349999999996
