6

C      48.759249999999994     48.899849999999994     48.784349999999989
C      47.693949999999994     47.993350000000000     48.295349999999999
C      48.156749999999995     46.922950000000000     47.550449999999998
H      46.747149999999998     48.198450000000001     48.621549999999999
O      49.252850000000002     49.884349999999998     48.885850000000005
O      48.585349999999998     46.115650000000002     47.114149999999995
