18

C      48.639949999999999     47.765199999999993     47.994004999999994
C      47.190150000000010     48.312599999999996     47.831305000000008
C      49.747550000000011     48.628000000000007     48.034415000000010
C      46.864550000000001     49.727699999999992     47.745195000000002
C      48.809650000000012     46.192499999999995     47.995725000000007
C      46.240349999999999     47.130399999999995     47.839835000000008
C      49.330450000000006     50.056499999999993     48.206435000000006
C      48.006050000000009     50.617899999999999     47.870525000000008
C      48.026150000000008     45.199999999999996     48.278815000000009
C      46.586950000000009     45.809799999999996     48.190705000000008
H      50.730950000000000     48.187799999999989     48.157894999999996
H      45.786250000000003     50.131700000000002     47.528975000000003
H      49.797550000000008     45.680899999999994     48.149515000000008
H      45.269050000000000     47.695999999999998     47.747845000000005
H      50.095350000000003     50.785699999999999     48.355945000000006
H      47.846550000000001     51.796100000000003     48.085535000000007
H      48.214150000000011     44.203899999999997     48.246145000000013
H      45.889550000000007     45.070099999999996     48.471024999999997
