18

C      48.045999999999992     48.973094999999986     47.420749999999998
C      48.151699999999998     47.830174999999997     48.388450000000006
C      46.873300000000000     49.348594999999989     46.673649999999995
C      47.175100000000000     46.726604999999992     48.324749999999995
C      49.286099999999998     49.655794999999998     47.190449999999998
C      49.316300000000005     47.899514999999994     49.277249999999995
C      45.778300000000002     48.481104999999999     46.815749999999994
C      45.980200000000004     47.220524999999995     47.558049999999994
C      50.479800000000004     49.557395000000000     47.908749999999998
C      50.392299999999999     48.793094999999994     49.190749999999994
H      46.758900000000004     50.263795000000002     46.163250000000005
H      47.381800000000005     45.662004999999994     48.488349999999997
H      49.112299999999998     50.252994999999999     46.358949999999993
H      49.380599999999994     46.972794999999991     49.836749999999995
H      44.717800000000004     48.542315000000002     46.486450000000005
H      45.024999999999999     46.599035000000001     47.907649999999990
H      51.282199999999996     50.337995000000006     47.573749999999990
H      51.079500000000003     48.640225000000001     49.783749999999998
