18

C      47.408749999999998     48.982049999999987     48.086449999999992
C      47.788750000000007     47.624549999999992     47.315049999999999
C      46.370350000000002     49.304849999999995     49.203049999999998
C      46.885750000000002     46.591049999999996     47.871049999999997
C      48.524749999999997     49.758049999999990     47.584249999999997
C      48.754749999999987     47.444049999999997     46.315349999999995
C      45.805850000000007     48.136849999999995     49.831049999999998
C      46.305250000000001     46.937149999999995     49.156750000000002
C      49.647949999999994     49.606549999999991     46.608049999999999
C      49.729649999999992     48.348449999999993     45.956949999999999
H      46.520150000000001     50.176449999999996     49.781849999999991
H      46.980050000000006     45.474449999999997     47.680250000000001
H      48.863250000000008     50.525550000000003     48.247349999999997
H      48.604050000000001     46.601849999999992     45.504249999999999
H      45.529650000000004     48.179649999999995     51.029550000000000
H      46.444550000000007     45.859249999999996     49.529849999999996
H      50.470349999999996     50.228749999999998     46.234949999999998
H      50.288650000000004     48.406349999999996     44.970450000000000
