18

C      47.564149999999984     48.136049999999990     47.291150000000002
C      48.235449999999993     47.911749999999998     48.527050000000003
C      46.087150000000001     47.936149999999998     47.452950000000008
C      47.526149999999994     47.370249999999999     49.685049999999997
C      48.448749999999997     48.682950000000005     46.217350000000003
C      49.564850000000000     48.533950000000004     48.664450000000002
C      45.505050000000004     47.087649999999996     48.466950000000004
C      46.184249999999999     46.945050000000002     49.817750000000004
C      49.901750000000000     48.887949999999996     46.238250000000008
C      50.565649999999998     48.752449999999996     47.573250000000009
H      45.526949999999992     48.012250000000002     46.536050000000003
H      48.006750000000004     47.180549999999997     50.671349999999997
H      48.361249999999991     48.646049999999988     45.177150000000005
H      50.125049999999995     48.495750000000001     49.429850000000009
H      44.298250000000003     47.061149999999998     48.375050000000009
H      45.630249999999997     46.732849999999999     50.822849999999995
H      50.402749999999990     49.267150000000001     45.395550000000007
H      51.701749999999997     48.856350000000006     47.557950000000012
