98

C      45.826349999999998     47.051849999999988     52.098399999999991
C      50.393850000000000     46.357650000000000     47.369499999999988
C      49.925049999999999     45.026350000000001     46.875999999999991
C      52.285550000000001     43.939249999999994     51.270199999999988
C      51.461950000000002     42.664750000000005     50.704599999999999
C      50.881550000000004     46.515549999999998     48.749399999999994
C      50.015450000000001     43.759049999999995     47.585799999999992
C      52.016750000000002     45.088749999999997     50.625299999999996
C      50.487950000000012     42.666149999999995     49.687100000000001
C      51.038150000000002     45.214250000000000     49.512199999999993
C      50.393249999999995     43.945649999999993     49.073999999999998
C      49.802849999999999     47.574949999999994     46.724299999999999
C      48.787350000000004     47.536849999999994     45.676499999999990
C      48.572149999999993     46.150950000000002     45.147799999999989
C      49.311750000000004     45.019650000000006     45.519300000000001
C      53.073149999999998     43.557049999999997     52.458299999999994
C      53.499050000000004     41.479549999999996     51.701299999999989
C      52.184950000000001     41.395950000000006     51.113900000000001
C      50.301749999999998     48.868649999999995     47.173299999999998
C      49.621749999999999     49.625949999999996     46.250599999999991
C      48.649850000000001     48.988750000000003     45.393999999999991
C      51.460750000000004     47.836350000000003     49.329200000000000
C      51.221150000000009     49.041949999999993     48.527299999999997
C      49.751550000000002     41.430850000000000     49.234799999999993
C      52.973349999999996     47.684649999999998     49.783799999999999
C      50.540050000000001     47.750149999999998     50.546299999999988
C      47.918849999999999     45.772550000000003     43.924700000000001
C      46.967150000000004     47.772650000000006     49.873399999999990
C      47.692650000000000     48.990249999999996     49.993499999999997
C      42.674750000000003     53.474150000000002     44.006499999999988
C      43.456250000000004     53.970549999999996     45.090399999999988
C      46.081650000000010     47.543450000000000     48.640400000000000
C      47.191850000000002     50.258850000000002     49.256399999999999
C      42.839250000000000     52.112349999999999     43.632499999999993
C      44.344349999999999     53.131949999999996     45.862399999999994
C      44.895550000000000     48.224349999999994     46.515499999999989
C      43.856050000000003     49.685949999999998     44.466399999999993
C      45.828250000000004     51.182949999999998     47.400399999999991
C      45.934349999999995     48.626550000000002     47.777000000000001
C      46.330249999999999     49.975749999999998     48.304699999999997
C      43.524950000000004     51.143650000000001     44.418899999999994
C      44.437150000000003     49.373950000000001     45.762299999999996
C      44.204750000000004     51.707749999999997     45.599699999999999
C      44.864150000000002     50.767950000000006     46.433199999999999
C      45.232650000000000     53.560049999999997     46.983199999999997
C      45.989850000000004     52.618050000000004     47.894199999999998
C      46.789649999999995     52.850450000000002     49.086799999999997
C      47.551450000000003     51.715049999999998     49.469799999999992
C      47.478049999999996     46.393350000000005     49.801499999999990
C      47.149349999999998     47.237349999999999     51.385099999999994
C      48.219650000000001     48.095649999999999     52.275899999999993
C      48.478750000000005     49.305349999999997     51.094099999999997
C      48.359250000000003     50.702350000000003     51.694399999999987
C      48.492649999999998     51.818850000000005     50.755299999999991
C      46.633650000000003     50.831849999999996     52.261199999999988
C      49.793449999999993     52.198150000000005     50.478299999999990
C      45.110650000000000     54.940750000000001     47.466099999999997
C      49.583850000000012     48.613849999999992     51.681399999999996
H      49.655550000000005     42.960749999999997     47.069699999999997
H      52.568950000000001     46.062450000000005     50.953299999999999
H      49.368850000000002     44.162050000000001     45.053599999999989
H      53.243150000000000     44.551650000000002     53.140499999999989
H      53.816749999999999     40.474150000000002     51.668899999999994
H      51.862749999999998     40.366650000000000     50.973399999999998
H      49.612050000000011     50.726850000000006     46.523399999999995
H      47.771550000000005     49.358950000000000     44.682699999999997
H      52.259349999999998     49.418849999999999     48.106799999999993
H      51.168150000000004     50.027849999999994     49.182599999999994
H      53.323550000000012     46.713150000000006     50.116299999999995
H      53.684950000000001     47.841349999999998     49.007099999999994
H      53.273450000000011     48.394050000000000     50.521699999999996
H      50.641750000000002     46.769150000000003     51.107799999999997
H      49.488750000000010     47.536750000000005     50.018199999999993
H      47.397350000000003     46.034749999999995     43.046799999999990
H      48.485350000000004     44.803249999999998     43.557699999999997
H      42.321350000000002     54.391650000000006     43.396499999999989
H      43.400050000000000     54.949750000000002     45.083500000000001
H      45.703550000000000     46.713649999999994     48.154699999999991
H      42.183250000000001     51.892149999999994     42.689200000000000
H      43.348849999999999     49.152750000000005     43.762999999999991
H      46.991849999999999     53.807549999999999     49.640299999999996
H      48.621450000000003     48.016550000000002     53.310800000000000
H      48.961150000000004     50.743050000000004     52.603999999999999
H      48.084050000000005     52.746450000000003     51.298599999999993
H      46.275450000000006     49.834449999999997     52.091600000000000
H      45.965249999999997     51.418450000000000     51.566199999999995
H      46.257650000000012     50.936249999999994     53.266599999999997
H      50.069050000000004     53.132150000000003     49.871600000000001
H      50.466349999999991     52.604649999999999     51.715999999999994
H      50.149950000000004     51.081550000000000     50.374499999999998
H      44.450749999999999     55.633350000000000     47.236300000000000
H      46.079549999999998     55.245049999999999     47.968899999999991
H      50.061949999999996     48.937450000000005     52.526199999999989
N      53.725849999999994     42.399849999999994     52.684199999999990
O      44.896650000000001     46.708049999999993     52.604999999999990
O      49.166550000000001     40.534050000000001     49.104500000000002
O      47.583950000000002     45.379950000000001     49.245300000000000
O      45.560450000000003     47.401249999999997     45.923299999999998
