18

C      47.776849999999989     48.184034999999994     47.806449999999991
C      48.921549999999996     47.745914999999997     48.660780000000003
C      46.361750000000001     47.824434999999994     48.170249999999996
C      48.850749999999991     47.050164999999993     49.931150000000002
C      47.867449999999991     48.906574999999989     46.490119999999997
C      50.216349999999991     47.819014999999993     47.787509999999997
C      46.053649999999990     47.292995000000005     49.509420000000006
C      47.372949999999989     47.101254999999995     50.108789999999999
C      48.974449999999990     48.787244999999999     45.681950000000001
C      50.171650000000000     48.266295000000000     46.324840000000002
H      45.656749999999988     48.084604999999996     47.391689999999997
H      49.703949999999992     46.789895000000001     50.486459999999994
H      47.117949999999993     49.156665000000004     45.802679999999995
H      51.035550000000001     47.304074999999997     48.180650000000000
H      44.954149999999998     47.016154999999998     49.908559999999994
H      47.641249999999999     46.817984999999993     51.265180000000001
H      49.332549999999998     49.210104999999999     44.734819999999999
H      51.045850000000002     48.065865000000002     45.738970000000002
