8

C      48.249059999999986     47.299979499999985     47.937749999999994
C      47.576660000000004     48.727899499999992     48.246049999999997
H      47.756159999999994     46.781029499999995     47.053150000000002
H      48.352159999999998     46.505540499999995     48.729950000000002
H      49.207639999999998     47.546779499999985     47.533349999999999
H      48.237859999999998     49.494459500000005     48.550649999999990
H      47.341260000000005     49.075469499999997     47.189949999999996
H      46.792360000000002     48.695969499999997     48.946849999999998
