18

C      47.782349999999994     48.709449999999990     47.347199999999987
C      48.911249999999995     48.518949999999997     48.328999999999994
C      46.692049999999995     49.624149999999993     47.498500000000007
C      48.425549999999987     48.873349999999995     49.738599999999991
C      48.045549999999992     47.989649999999997     46.069899999999990
C      49.922749999999994     47.404949999999999     48.286299999999997
C      46.422649999999990     50.047049999999999     48.850399999999993
C      47.288550000000001     49.691049999999997     49.946100000000001
C      48.963649999999987     46.875349999999997     45.947400000000002
C      49.765049999999988     46.532249999999998     47.087800000000001
H      46.020449999999997     49.880749999999999     46.781499999999994
H      48.985549999999989     48.524250000000002     50.651200000000003
H      47.059449999999998     47.929249999999996     45.316899999999990
H      50.556049999999999     47.227349999999994     49.183199999999999
H      45.443950000000001     50.541850000000004     49.192899999999995
H      47.194749999999999     50.165349999999997     50.921000000000006
H      48.692449999999994     46.116149999999998     45.078999999999994
H      50.146049999999988     45.458149999999996     47.338899999999995
