18

C      48.325249999999990     47.937399999999990     47.580199999999984
C      47.291449999999998     48.300899999999999     48.583399999999997
C      49.678950000000000     47.653399999999991     48.107799999999997
C      47.824249999999992     48.585299999999997     49.899699999999996
C      47.772549999999995     47.681599999999996     46.256999999999991
C      45.933449999999993     48.566999999999993     48.101599999999991
C      50.348150000000004     48.116499999999995     49.186599999999999
C      49.318249999999992     48.607599999999991     50.166600000000003
C      46.380250000000004     47.594099999999997     45.789000000000001
C      45.524349999999998     47.986000000000004     46.789299999999997
H      50.366950000000003     47.186999999999998     47.449199999999990
H      47.381950000000003     48.813000000000002     50.855499999999992
H      48.378850000000000     47.308599999999998     45.419299999999993
H      45.051249999999996     48.557500000000005     48.775099999999995
H      51.518749999999997     48.337199999999996     49.276899999999998
H      49.243449999999996     48.771499999999996     51.235399999999998
H      45.986549999999994     47.234499999999997     44.764600000000002
H      44.481250000000003     48.200899999999990     46.493099999999998
