18

C      47.490799999999993     48.307954999999993     47.617499999999993
C      48.838900000000002     48.102555000000009     48.157599999999995
C      47.066200000000002     47.100144999999998     46.803499999999993
C      49.546799999999998     47.042935000000000     47.714700000000001
C      46.441899999999997     49.317824999999999     47.952799999999989
C      49.145900000000005     48.828155000000010     49.212899999999998
C      47.759599999999999     46.164715000000001     45.910199999999996
C      49.042099999999998     46.270515000000003     46.584199999999989
C      46.736899999999999     49.849895000000004     49.216400000000000
C      48.043599999999991     49.641895000000005     49.894500000000001
H      45.937899999999992     47.411465000000007     46.503299999999989
H      50.553400000000003     47.358204999999998     47.649099999999997
H      45.446599999999997     49.402675000000002     47.520499999999991
H      50.097500000000004     48.770425000000017     49.632699999999993
H      47.258599999999994     45.711525000000009     45.060600000000001
H      50.011199999999995     45.650115000000000     46.097899999999989
H      46.014800000000001     50.349885000000000     49.632500000000000
H      48.139199999999995     49.995805000000004     50.939399999999999
