18

C      47.978399999999993     47.329449999999994     47.724599999999995
C      47.600700000000003     48.821450000000006     48.098499999999994
C      49.214599999999997     46.953949999999999     46.947800000000001
C      48.756000000000007     49.786850000000008     47.927200000000006
C      47.246800000000000     46.258150000000001     48.481199999999994
C      46.534100000000002     49.039549999999998     49.026299999999999
C      49.988599999999998     48.001349999999995     46.459899999999998
C      49.853100000000005     49.268250000000002     47.216600000000000
C      46.284700000000001     46.554450000000003     49.510700000000007
C      45.890400000000007     47.912550000000003     49.620600000000003
H      49.401500000000006     46.104350000000004     46.305600000000005
H      48.548099999999998     50.813549999999999     48.334400000000009
H      47.284399999999998     45.186450000000001     48.145200000000003
H      46.268400000000007     50.174950000000003     49.371199999999995
H      50.860300000000002     47.823450000000001     45.821899999999999
H      50.568100000000001     50.006149999999998     47.733300000000007
H      46.041400000000003     45.664549999999998     50.178100000000001
H      45.139699999999998     48.287650000000006     50.163800000000002
