18

C      47.587339999999998     48.113399999999999     48.570499999999996
C      48.632230000000000     47.765100000000004     47.449199999999998
C      47.973450000000007     48.793700000000001     49.728000000000002
C      49.893030000000003     48.034499999999994     47.690900000000006
C      46.172810000000005     47.855000000000004     48.430100000000003
C      48.199260000000002     47.032300000000006     46.302900000000001
C      49.300430000000006     49.362499999999997     49.902099999999997
C      50.106830000000009     48.967100000000002     48.669300000000000
C      45.885830000000006     47.262100000000004     47.146899999999995
C      46.781580000000005     46.789900000000003     46.121299999999998
H      47.282820000000008     49.163899999999998     50.546200000000006
H      50.485030000000002     47.488600000000005     46.963500000000003
H      45.429800000000007     47.871700000000004     49.283499999999997
H      49.187630000000006     46.597499999999997     45.699000000000005
H      49.833030000000001     49.903499999999994     50.664600000000000
H      51.243029999999997     49.151899999999998     48.615500000000004
H      44.756970000000003     46.912300000000002     47.214199999999998
H      46.364290000000004     46.096500000000006     45.335400000000000
