18

C      47.314749999999997     48.378754999999991     48.395499999999998
C      48.091750000000005     47.114154999999997     48.616100000000010
C      46.464749999999995     48.490854999999996     47.321900000000007
C      47.783050000000003     45.984254999999990     47.715300000000006
C      47.590649999999997     49.711324000000005     48.786400000000008
C      49.366450000000000     47.395054999999999     49.338299999999997
C      46.175950000000000     47.408454999999989     46.408900000000010
C      46.731049999999996     46.149355000000000     46.792999999999999
C      48.688550000000006     49.860370000000003     49.582299999999996
C      49.545550000000006     48.732254999999995     49.869500000000009
H      45.807149999999993     49.529851000000001     47.305399999999999
H      48.395150000000001     45.121155000000002     47.853500000000004
H      47.170550000000006     50.678415000000001     48.321900000000007
H      50.083849999999998     46.525655000000000     49.564200000000007
H      45.651449999999997     47.478555000000000     45.457000000000001
H      46.520049999999998     45.143154999999993     46.176099999999998
H      48.660849999999996     50.878844999999998     49.954799999999999
H      50.348550000000003     48.688755000000000     50.542999999999999
