18

C      48.723699999999987     47.899378499999990     48.687899999999985
C      47.300700000000006     47.635378500000002     48.076299999999996
C      49.883700000000005     47.222778499999990     48.246900000000004
C      47.321600000000004     46.812578500000001     46.981000000000002
C      48.734499999999997     49.069978499999991     49.462499999999999
C      45.971400000000003     48.271578499999990     48.467599999999997
C      49.748000000000005     46.148178500000000     47.295300000000005
C      48.460099999999997     46.013678499999997     46.638699999999993
C      47.435100000000006     49.755217000000002     49.729700000000001
C      46.145700000000005     49.490278500000002     49.106199999999994
H      50.966700000000003     47.551678499999994     48.503999999999998
H      46.219499999999996     46.871278500000003     46.559599999999996
H      49.617800000000003     49.348978500000001     49.980499999999999
H      45.033299999999997     47.896878500000000     48.060399999999994
H      50.629900000000006     45.541078499999998     46.893399999999993
H      48.298599999999993     45.332578499999997     45.847699999999996
H      47.749700000000004     50.667421500000003     50.152300000000004
H      45.281199999999998     49.976108499999995     49.294800000000002
