70

C      46.723199999999991     50.828799999999994     45.061549999999983
C      51.165600000000005     46.131799999999998     51.916750000000000
C      47.935700000000004     51.492699999999999     45.482349999999990
C      49.959600000000002     45.560900000000004     51.570850000000000
C      46.274100000000004     49.582800000000006     45.830750000000002
C      51.553400000000003     47.364100000000008     51.168349999999997
C      49.682399999999994     51.755400000000009     47.299149999999990
C      47.734600000000000     45.146799999999999     50.269550000000002
C      50.303999999999995     51.197800000000001     48.484149999999993
C      47.059300000000000     45.611800000000002     49.075349999999993
C      46.618700000000004     47.400199999999998     47.274049999999995
C      50.778700000000008     49.441200000000009     49.919049999999991
C      48.527000000000001     50.972900000000010     46.707050000000002
C      49.062700000000000     45.831699999999998     50.367150000000002
C      46.901000000000003     48.889499999999998     46.855550000000001
C      50.598400000000005     47.987700000000004     50.220649999999999
C      47.466500000000003     46.822400000000002     48.265650000000001
C      49.884700000000002     49.894300000000001     48.877749999999999
C      48.079200000000007     49.790599999999998     47.294949999999993
C      49.442700000000002     47.110900000000001     49.804349999999992
C      48.882299999999994     48.999300000000005     48.144050000000000
C      48.605200000000004     47.621800000000007     48.722450000000002
C      46.201300000000003     51.398800000000008     43.756849999999993
C      47.180599999999991     51.991900000000001     42.834449999999997
C      48.416000000000004     52.707900000000009     43.179349999999992
C      48.813400000000001     52.407899999999998     44.552149999999990
C      49.919699999999999     53.130700000000004     45.147449999999999
C      50.233600000000003     52.915800000000004     46.501849999999997
C      51.997899999999994     45.547899999999998     53.084150000000001
C      51.671900000000001     44.272300000000001     53.780849999999994
C      50.559599999999996     43.468400000000003     53.314349999999997
C      49.847900000000003     44.213999999999999     52.196750000000002
C      48.439900000000002     43.903400000000005     52.198349999999998
C      47.356999999999999     44.219300000000004     51.391050000000000
C      45.088300000000004     49.206000000000003     44.911149999999999
C      44.903900000000000     50.242800000000003     43.402149999999999
C      44.833600000000004     51.625300000000010     43.337749999999993
C      51.536200000000001     52.447400000000002     50.355249999999991
C      43.958500000000001     52.121899999999997     44.579249999999995
C      44.285000000000004     52.413300000000007     42.176049999999996
C      45.593400000000003     46.422600000000003     46.579749999999997
C      51.693100000000008     51.917000000000002     48.909649999999992
C      46.409900000000000     43.120600000000010     51.431949999999993
H      52.497300000000003     47.727500000000006     51.070249999999994
H      46.163400000000003     44.954800000000006     48.855849999999997
H      47.085000000000001     51.985700000000008     41.782350000000001
H      49.244100000000010     53.055599999999998     42.529249999999998
H      50.523400000000002     53.874099999999999     44.592949999999995
H      51.282100000000007     53.328200000000010     46.470049999999993
H      52.995799999999996     45.708900000000000     53.268250000000002
H      52.100000000000001     44.020600000000002     54.624850000000002
H      50.153200000000005     42.328100000000006     53.792949999999998
H      47.771999999999998     43.276100000000000     52.887650000000001
H      44.370000000000005     49.261899999999997     45.643149999999999
H      45.043700000000001     48.201300000000003     44.595349999999989
H      44.315800000000003     49.559200000000004     42.782549999999993
H      44.111499999999999     51.511800000000008     45.600749999999998
H      43.004200000000004     52.515000000000001     44.198149999999991
H      44.481999999999999     52.881799999999998     45.038149999999995
H      43.142000000000003     52.653999999999996     42.352150000000002
H      45.272100000000002     53.106999999999999     41.883049999999990
H      44.024500000000003     51.755800000000008     41.375149999999998
H      44.530200000000001     46.684899999999999     46.453749999999992
H      45.900200000000005     45.573999999999998     47.104549999999996
H      45.608300000000000     45.953000000000003     45.602950000000000
H      51.481400000000001     49.988200000000006     50.475850000000001
H      52.586600000000004     51.095200000000006     48.767649999999996
H      52.413699999999999     52.550300000000007     48.472949999999990
O      51.044400000000003     52.686000000000007     51.292949999999998
O      45.871200000000002     42.125900000000001     51.565849999999990
