60

C      48.095199999999998     48.002899999999990     47.480764999999991
C      48.158200000000008     49.177400000000006     48.472535000000008
C      51.128200000000007     50.319699999999997     45.014385000000004
C      48.877700000000004     48.025199999999998     46.154025000000004
C      48.960099999999997     50.355500000000006     47.914254999999997
C      50.649699999999996     48.993800000000007     44.667715000000001
C      50.830900000000000     51.085999999999999     46.181905000000000
C      49.674599999999998     49.130399999999995     45.780834999999996
C      49.689099999999996     50.370199999999997     46.643895000000001
C      47.559100000000001     46.644800000000004     47.783275000000003
C      46.659400000000005     46.858100000000000     48.946575000000010
C      46.271799999999999     48.164500000000004     49.587475000000012
C      47.120699999999999     49.406599999999997     49.459775000000008
C      47.781000000000006     45.462200000000003     46.899105000000006
C      47.040900000000008     44.346800000000002     47.632875000000013
C      46.363200000000006     44.334499999999998     48.883075000000005
C      46.226100000000002     45.586199999999998     49.493675000000010
C      48.461200000000005     45.615000000000002     45.557175000000001
C      48.973200000000006     46.820500000000003     45.230685000000008
C      45.355400000000003     48.339600000000004     50.671675000000008
C      46.114800000000002     50.812200000000004     51.093675000000005
C      45.207300000000004     49.667299999999997     51.120075000000000
C      47.153199999999998     50.585099999999997     50.142175000000009
C      45.044399999999996     47.152400000000000     51.335774999999998
C      44.402100000000004     46.826300000000003     52.542275000000004
C      49.381399999999999     51.385400000000004     49.010374999999996
C      48.146500000000003     51.867999999999995     49.822475000000011
C      49.636200000000002     46.653300000000002     43.881365000000002
C      50.183800000000005     50.472000000000008     49.960175000000007
C      50.908799999999999     51.131100000000004     51.353975000000005
C      50.793400000000005     47.981600000000000     43.491214999999997
C      47.876199999999997     53.495800000000003     49.762574999999998
C      45.106700000000004     45.612500000000004     50.656874999999999
C      47.232900000000001     43.118700000000004     46.603405000000009
H      45.552599999999998     51.993200000000002     52.559875000000005
H      52.164500000000004     50.619299999999996     44.197915000000009
H      51.200000000000003     52.200199999999995     46.403545000000008
H      45.695899999999995     43.428000000000004     48.882375000000010
H      48.360900000000001     44.643900000000002     44.934134999999998
H      44.705799999999996     49.540900000000008     52.117375000000010
H      49.797799999999995     52.423800000000000     48.411034999999998
H      48.625299999999996     51.988600000000005     50.754374999999996
H      50.917000000000002     50.075199999999995     49.361775000000009
H      49.627899999999997     49.397599999999997     50.245375000000010
H      51.400500000000008     50.884699999999995     52.429675000000003
H      51.363299999999995     52.176900000000003     51.079775000000012
H      50.123300000000000     51.439599999999999     51.954475000000002
H      51.722099999999998     47.443899999999999     43.249234999999999
H      50.695599999999999     48.313299999999998     42.483024999999998
H      48.861800000000002     53.908000000000001     49.946875000000006
H      47.594899999999996     53.891400000000004     48.844675000000009
H      46.922700000000006     53.399600000000007     50.135075000000001
H      44.823300000000003     44.770600000000002     51.382575000000003
H      44.157499999999999     45.639099999999999     49.789275000000004
H      47.311300000000003     42.091999999999999     47.364294999999998
H      46.445000000000007     42.859400000000001     45.995805000000004
H      48.332999999999998     43.142900000000004     46.170505000000006
O      49.896600000000007     45.649600000000000     43.423555000000007
O      43.835499999999996     46.913899999999998     53.516975000000002
O      45.589799999999997     52.054500000000004     51.467475000000007
