5

C      47.864699999999985     47.833449999999985     47.840899999999998
H      47.237699999999997     48.700150000000008     47.769300000000001
H      47.875300000000003     47.505369999999999     48.812500000000000
H      47.294199999999996     47.299849999999992     47.187500000000000
H      48.762300000000003     48.422879999999992     47.422300000000007
