18

C      48.790899999999993     48.064649999999986     47.808999999999997
C      47.700409999999991     47.828350000000000     48.780600000000007
C      49.330089999999998     47.043049999999994     46.827600000000004
C      47.498489999999990     46.355149999999995     49.144400000000005
C      49.420779999999993     49.351150000000004     47.431600000000003
C      46.861559999999997     48.976050000000001     49.075499999999991
C      48.912949999999995     45.687349999999995     47.085599999999999
C      48.194699999999997     45.430949999999996     48.367300000000000
C      48.551389999999998     50.440349999999995     47.751400000000004
C      47.397619999999989     50.225049999999996     48.573800000000006
H      50.007839999999987     46.932850000000002     46.062399999999997
H      46.779079999999993     46.011250000000004     49.937600000000003
H      50.100549999999998     49.782849999999996     46.576300000000003
H      45.899450000000002     48.929349999999999     49.871000000000009
H      49.263959999999997     44.875050000000002     46.643600000000006
H      48.337289999999996     44.620949999999993     48.999300000000005
H      48.782820000000001     51.379050000000007     47.502300000000005
H      46.935829999999996     51.171949999999995     48.596499999999992
