14

C      47.630399999999995     47.115639999999985     50.121249999999996
C      48.096599999999995     46.820890000000006     48.759749999999997
C      48.604600000000005     48.461479999999995     46.539850000000001
C      48.347800000000007     48.108780000000010     48.050849999999997
C      48.180700000000002     49.075760000000002     49.135050000000007
C      47.880399999999995     48.514660000000006     50.417550000000006
C      47.995599999999996     47.547920000000005     45.681849999999997
H      47.068200000000004     46.545429999999996     50.866150000000005
H      48.041799999999995     45.886039999999994     48.307749999999999
H      48.931799999999996     49.484859999999998     46.458849999999998
H      48.404399999999995     50.113960000000006     49.171250000000001
H      47.682299999999998     49.046859999999995     51.402249999999995
H      47.906599999999997     46.493899999999996     45.874849999999995
H      47.898899999999998     47.755200000000002     44.597750000000005
