18

C      47.788454999999985     47.619349999999990     47.290649999999992
C      48.245384999999992     48.176349999999999     48.530349999999999
C      48.983224999999997     47.525050000000000     46.456150000000001
C      49.583074999999987     48.263249999999999     48.899149999999999
C      46.400044999999999     47.257750000000001     47.282750000000000
C      47.263860999999991     48.494450000000001     49.581150000000001
C      50.368945000000004     47.904949999999999     46.515149999999998
C      50.602564999999991     48.092249999999993     47.926349999999999
C      45.473344999999995     47.511350000000000     48.359850000000002
C      45.793744999999994     48.130650000000003     49.605249999999998
H      48.630024999999996     46.855750000000000     45.699150000000003
H      49.740684999999992     48.589349999999996     49.892150000000001
H      46.251245000000004     46.896149999999999     46.211150000000004
H      47.774564999999996     49.144250000000000     50.392649999999996
H      50.991064999999985     47.619450000000001     45.607350000000004
H      51.645254999999985     48.522649999999999     48.191549999999999
H      44.354745000000015     47.337750000000000     48.013750000000002
H      45.246444999999987     48.485550000000003     50.367350000000002
