18

C      48.104899999999994     48.511199999999995     48.643049999999995
C      48.230699999999999     47.453000000000003     47.673550000000006
C      49.340999999999994     48.992300000000000     49.309150000000002
C      49.498899999999999     46.683599999999998     47.575650000000003
C      46.943199999999997     49.094700000000003     48.982349999999997
C      47.009999999999998     47.122399999999999     46.897050000000007
C      50.436399999999999     48.126899999999999     49.257249999999999
C      50.561499999999995     46.871499999999997     48.512650000000001
C      45.735100000000003     48.593100000000007     48.350549999999998
C      45.757700000000000     47.847499999999997     47.073549999999997
H      49.458200000000005     50.013599999999997     49.796149999999997
H      49.342600000000004     45.986400000000003     46.972250000000003
H      46.938699999999997     49.975999999999999     49.910849999999996
H      47.010399999999997     46.252400000000002     46.089150000000004
H      51.241900000000001     48.467100000000002     49.880949999999999
H      51.250000000000000     46.136699999999998     48.515749999999997
H      44.750000000000000     49.093099999999993     48.725750000000005
H      44.866999999999997     47.867699999999999     46.351550000000003
