54

C      48.364260000000002     46.268514999999987     47.941289999999981
C      47.564124999999990     46.063744999999990     46.750290000000000
C      45.462525000000014     50.910764999999998     44.151589999999992
C      48.890436999999991     47.706624999999988     48.126989999999999
C      46.878325000000032     51.385314999999991     47.255890000000001
C      47.122925000000009     47.344334999999994     46.188589999999998
C      45.990324999999999     49.826584999999994     45.303489999999989
C      48.830977000000004     50.332874999999987     48.201989999999988
C      48.063818310000002     49.079904999999997     48.173089999999995
C      48.182556000000005     51.458884999999995     47.674090000000000
C      47.277024999999995     48.674144999999989     46.858789999999992
C      46.688924999999998     49.991604999999993     46.577689999999997
C      46.405424999999980     47.363414999999989     44.943489999999990
C      45.767925000000005     48.600884999999991     44.592790000000001
C      48.991127999999989     45.014004999999990     48.533690000000000
C      48.518529999999998     43.590374999999980     47.940289999999997
C      47.408225000000016     43.722875000000009     47.002689999999994
C      47.005825000000030     44.737109999999994     46.099489999999996
C      46.388024999999999     44.895774999999993     44.844989999999989
C      46.274125000000012     46.157854999999991     44.094389999999997
C      50.247924999999995     47.857624999999999     48.233289999999990
C      49.664505000000005     45.220994999999988     49.863989999999994
C      49.198135000000008     44.751631999999994     51.250675999999999
C      47.046525000000017     49.080094999999993     49.296389999999995
C      50.179214999999999     44.625553999999994     47.938489999999994
C      50.576364999999996     44.946394999999988     51.060932000000001
C      49.063485000000000     43.165275000000001     51.150466000000002
C      47.987025000000031     45.473974999999989     52.012250000000002
H      46.210925000000003     53.422224999999997     48.005589999999991
H      48.564211999999998     52.351634999999987     47.427989999999987
H      45.155825000000007     51.791974999999994     44.785789999999999
H      46.295625000000001     51.135194999999996     43.456189999999999
H      44.567625000000007     50.482354999999998     43.697989999999997
H      49.874684999999999     50.227964999999983     48.803189999999994
H      45.367725000000021     48.659574999999990     43.494389999999989
H      48.873857999999998     42.577775000000003     48.130589999999991
H      46.914224999999988     42.889174999999980     46.600989999999989
H      46.222825000000014     43.845854699999990     44.465789999999991
H      45.871224999999981     46.093804999999989     43.039189999999998
H      51.029624999999996     46.993234999999984     48.059390000000000
H      50.802615000000003     48.886604999999989     48.032089999999990
H      46.646325000000004     50.141474999999986     49.412990000000001
H      47.548824999999994     48.737804999999994     50.165289999999992
H      46.109025000000017     47.862884999999991     49.420889999999993
H      51.136155000000002     44.405933999999988     48.210389999999997
H      50.236024999999998     44.741165999999993     46.897789999999993
H      51.432374999999993     44.334784999999989     50.745889999999996
H      47.959225000000018     43.374375000000015     51.282332000000004
H      49.293144999999996     42.709374999999980     50.051389999999991
H      49.584764999999990     42.632975000000002     51.903590000000001
H      47.943425000000005     46.457924999999989     52.535560000000011
H      47.414325000000034     44.977864999999994     52.960810000000002
H      47.450125000000028     45.501754999999989     51.229787999999999
N      46.048824999999994     52.319204999999982     47.651689999999995
