43

C      43.936199999999992     47.982879999999980     47.669299999999993
C      42.689800000000005     50.019909999999982     46.214100000000002
C      51.212200000000003     46.262879999999996     46.308600000000006
C      49.299399999999991     43.672679999999986     47.098400000000005
C      44.453500000000005     47.775229999999979     49.006499999999996
C      41.800300000000000     49.762379999999979     45.120100000000001
C      49.863299999999995     46.796279999999996     46.661999999999999
C      47.899799999999999     43.574879999999979     47.856699999999996
C      47.164100000000005     46.919479999999993     47.162300000000002
C      46.680199999999999     44.619779999999977     47.435300000000005
C      44.873100000000001     46.870079999999987     48.101800000000004
C      46.108800000000002     46.084279999999993     47.684699999999999
C      48.544699999999999     46.227679999999978     46.891600000000004
C      47.977500000000006     44.836279999999988     46.943900000000006
C      45.268199999999993     50.891519999999986     49.831899999999997
C      44.931699999999992     52.229179999999985     49.249000000000002
C      43.992999999999995     51.808469999999986     46.824700000000000
C      43.733600000000003     49.257619999999974     47.007399999999997
C      51.402200000000008     44.849779999999981     46.012500000000003
C      50.572099999999992     43.631079999999983     46.553199999999997
C      54.064499999999995     44.107979999999998     45.522700000000000
C      52.749600000000001     44.377280000000013     45.792200000000001
C      44.874900000000011     52.330709999999982     47.894900000000000
C      44.330900000000000     49.992109999999983     50.119500000000009
C      45.695700000000002     49.589049999999986     50.715799999999994
C      45.642499999999998     53.230239999999981     48.381700000000002
C      44.690299999999993     48.542899999999989     50.385200000000005
C      44.190899999999999     50.453789999999984     46.468800000000002
C      50.951300000000003     47.724638999999982     46.201100000000004
H      48.467900000000000     43.639980000000008     48.964999999999996
H      47.016700000000000     47.877604999999988     46.615299999999998
H      46.016200000000005     43.848780000000005     47.299600000000005
H      43.347400000000000     52.593309999999974     46.186000000000000
H      54.693500000000000     43.137480000000011     46.133200000000002
H      54.427999999999997     44.350979999999993     44.618000000000002
H      50.956000000000003     42.730780000000010     46.743200000000002
H      46.838400000000007     53.269219999999990     48.170499999999997
H      44.375699999999995     47.924015999999980     51.067100000000003
H      45.822299999999998     49.634409999999974     51.765999999999998
H      44.868700000000004     50.311879999999988     45.572099999999999
H      50.804900000000004     48.272029999999972     45.103699999999996
H      51.435699999999997     48.256939999999986     46.912799999999997
O      41.306500000000000     49.279109999999989     44.234000000000002
