67

C      47.357199999999992     52.708149999999989     45.958399999999997
C      47.373800000000017     48.394050000000000     47.838500000000003
C      47.911500000000004     49.248350000000009     48.922900000000006
C      46.575900000000004     51.814950000000003     44.766900000000000
C      46.610900000000001     49.090949999999999     46.851400000000005
C      47.431800000000010     50.620550000000001     49.152600000000000
C      46.100300000000004     51.676549999999999     46.125000000000007
C      46.474500000000006     50.517950000000006     47.063300000000005
C      46.818200000000004     51.360850000000006     48.301600000000001
C      47.589500000000015     46.907750000000000     47.631500000000010
C      47.816900000000004     45.715049999999998     48.648200000000010
C      49.464600000000004     47.278449999999999     50.060800000000008
C      48.832200000000000     48.668250000000008     49.877699999999997
C      47.082500000000010     46.422450000000005     46.474700000000006
C      47.323100000000011     44.995350000000009     45.920800000000007
C      47.874900000000011     44.010449999999999     46.681500000000007
C      48.259399999999999     44.407249999999998     48.010399999999997
C      46.173500000000004     47.124550000000006     45.248200000000004
C      46.488600000000005     48.462049999999998     45.359500000000004
C      47.002300000000005     49.153449999999999     44.148600000000009
C      47.124700000000004     50.793349999999997     43.735300000000002
C      47.656400000000005     51.534349999999996     50.328499999999998
C      47.044899999999998     52.806950000000008     50.359800000000000
C      49.623400000000004     48.381250000000001     51.088900000000002
C      48.599200000000010     46.008550000000007     50.084600000000002
C      49.639000000000010     44.740850000000002     49.962700000000005
C      49.413899999999998     43.989750000000008     48.842199999999998
C      46.772300000000001     44.987850000000002     44.467400000000005
C      46.201700000000002     46.274250000000002     43.841000000000001
C      45.034300000000002     48.256650000000000     45.274500000000010
C      46.809200000000004     44.880150000000008     49.108100000000000
C      49.378200000000007     48.047450000000005     52.562199999999997
C      50.611100000000008     49.573150000000005     51.300900000000006
C      45.184100000000001     51.362550000000006     45.082100000000004
C      49.371200000000002     43.890850000000007     51.260300000000008
H      47.940600000000003     49.324450000000006     44.908500000000011
H      46.902000000000001     48.554049999999997     43.348199999999999
H      48.190500000000014     50.635250000000006     43.395600000000009
H      46.655400000000000     51.033250000000002     42.741199999999999
H      48.288000000000011     51.462150000000001     51.379300000000008
H      47.315800000000010     53.480550000000001     51.207100000000004
H      47.877200000000016     46.037349999999996     51.196500000000007
H      50.506300000000010     47.051449999999996     49.699300000000001
H      50.618000000000009     45.106850000000001     50.153700000000008
H      50.170800000000014     43.269050000000000     48.453200000000002
H      46.100700000000003     44.193550000000009     44.307700000000004
H      47.564000000000007     44.575049999999997     43.741999999999997
H      45.912599999999998     46.195349999999998     42.868500000000004
H      47.169600000000003     46.427450000000000     43.225800000000000
H      44.336399999999998     48.099150000000002     46.144300000000008
H      44.657000000000011     48.445950000000003     44.366999999999997
H      46.737200000000001     44.278250000000007     50.033000000000008
H      45.953000000000003     44.763550000000002     48.251300000000008
H      49.124600000000001     48.968449999999997     52.835300000000011
H      50.267300000000006     47.634050000000009     53.258800000000001
H      48.448800000000006     47.488549999999996     52.798400000000008
H      50.385200000000012     50.516849999999998     51.675200000000011
H      51.663600000000002     49.195950000000003     51.630100000000006
H      50.985300000000009     49.814950000000003     50.083800000000004
H      44.642099999999999     50.635150000000003     44.561700000000009
H      50.068500000000000     43.165349999999997     51.611700000000006
H      48.200200000000009     43.656950000000002     51.057499999999997
H      49.601200000000006     44.486350000000009     52.106800000000000
H      48.023000000000010     42.457749999999997     45.315100000000008
O      48.201000000000008     53.542250000000003     46.314300000000010
O      48.320500000000010     42.684850000000004     46.291900000000005
S      46.390300000000011     53.327450000000006     48.781700000000008
