18

C      47.724799999999995     48.719749999999991     47.778549999999989
C      48.726600000000005     47.503449999999994     47.526250000000005
C      46.459600000000002     48.894650000000006     47.135049999999993
C      47.987899999999996     46.505450000000003     46.728849999999994
C      47.792500000000004     49.539250000000003     48.967050000000000
C      50.112399999999994     47.656450000000000     47.967550000000003
C      45.904499999999999     47.959349999999993     46.171650000000000
C      46.763199999999998     46.787749999999996     46.056650000000005
C      48.971900000000005     49.080149999999996     49.628749999999997
C      50.088200000000001     48.256750000000004     49.302250000000001
H      45.796700000000001     49.521250000000002     47.601849999999999
H      48.514099999999999     45.700849999999996     47.293750000000003
H      47.103200000000001     50.299150000000004     49.185549999999992
H      50.979500000000002     46.998950000000001     47.761849999999995
H      45.020499999999998     48.164849999999994     45.538550000000001
H      46.149500000000003     45.856649999999995     45.373750000000001
H      48.890700000000010     49.555249999999994     50.626249999999999
H      50.835900000000002     47.835349999999998     49.880349999999993
