18

C      48.495699999999992     48.529399999999995     47.290249999999993
C      48.324500000000000     47.545999999999992     48.426749999999998
C      48.233200000000011     49.870199999999997     47.699950000000001
C      48.308999999999997     48.026700000000005     49.886849999999995
C      48.580399999999997     47.970100000000002     45.887549999999997
C      48.080800000000011     46.201899999999995     48.147349999999996
C      47.888100000000009     50.185400000000001     49.097949999999997
C      48.136700000000005     49.488000000000000     50.285449999999997
C      48.448400000000007     46.534599999999998     45.661549999999998
C      47.910499999999999     45.739199999999997     46.813749999999999
H      48.216800000000006     50.668400000000005     46.961849999999998
H      48.401800000000009     47.185999999999993     50.550950000000000
H      48.562200000000004     48.440100000000001     44.863349999999997
H      47.893600000000006     45.573999999999998     48.816649999999996
H      47.687500000000000     51.119299999999996     49.557049999999990
H      47.718100000000007     49.831999999999994     51.292450000000002
H      48.185699999999997     46.198499999999996     44.707549999999998
H      47.419600000000003     44.880700000000004     46.592549999999996
