101

C      41.813199999999995     49.565989999999992     45.555099999999996
C      42.435900000000004     50.613360000000000     44.658600000000000
C      48.318799999999996     50.736679999999993     47.467999999999996
C      47.730099999999993     51.010769999999994     48.820100000000004
C      43.845500000000001     51.745120000000000     45.430799999999998
C      43.344899999999996     52.164960000000001     46.742399999999996
C      47.460199999999986     50.328119999999998     46.377999999999993
C      46.347899999999996     51.329049999999995     48.923999999999999
C      45.204099999999997     51.079940000000008     45.196400000000004
C      44.467299999999994     52.149299999999997     47.732099999999996
C      46.289599999999993     51.249880000000005     46.301799999999993
C      45.691699999999997     51.392730000000000     47.611899999999999
C      49.792199999999994     50.453829999999996     47.068999999999996
C      50.554099999999991     50.258650000000003     48.318700000000000
C      49.976900000000001     50.628529999999998     49.656100000000002
C      48.653099999999995     50.843499999999992     50.104400000000005
C      43.179400000000001     52.839489999999998     43.555399999999999
C      42.493399999999994     52.125650000000000     44.797900000000006
C      41.342600000000004     52.468319999999991     45.669000000000004
C      42.007700000000000     52.850899999999996     46.907900000000005
C      50.323899999999995     50.017250000000004     45.735000000000007
C      51.673199999999994     49.730959999999996     45.749599999999994
C      52.576999999999998     49.731710000000007     46.865299999999998
C      52.015699999999995     49.866020000000006     48.209700000000005
C      47.855999999999995     50.043129999999991     44.874199999999995
C      46.764600000000002     49.690910000000002     43.726800000000004
C      45.547999999999988     50.374279999999999     44.103900000000003
C      46.897599999999997     49.770550000000000     42.163000000000004
C      47.151300000000006     48.623269999999998     44.581899999999997
C      48.317599999999999     51.884330000000006     51.138100000000001
C      52.282599999999988     49.220030000000001     44.484000000000002
C      52.147699999999986     46.441539999999996     47.681900000000006
C      53.063199999999995     45.598689999999998     48.548099999999998
C      47.730999999999995     48.399580000000000     49.608200000000004
C      48.835899999999995     48.263869999999997     50.491199999999999
C      51.013999999999996     47.222119999999997     47.970800000000004
C      53.043199999999999     46.429069999999996     50.932700000000004
C      47.971199999999996     49.598389999999995     50.733799999999995
C      50.242900000000006     47.911589999999997     50.572399999999995
C      51.133600000000001     47.637270000000001     49.521899999999995
C      51.796499999999995     47.581060000000001     50.824000000000005
C      51.597700000000003     46.032969999999999     46.219799999999999
C      52.419100000000000     44.800089999999997     45.905999999999999
C      53.713399999999993     44.190249999999999     46.597100000000005
C      53.947999999999993     44.668750000000003     48.015400000000007
C      52.478700000000003     47.229599999999998     53.547300000000000
C      52.266300000000001     46.762450000000001     52.189900000000002
C      47.003199999999993     47.818899999999999     48.706399999999995
C      50.256699999999995     46.618510000000001     45.770500000000006
C      51.244399999999999     46.113320000000002     43.663199999999996
C      52.045699999999997     45.247760000000000     44.642000000000003
C      54.867300000000000     45.276069999999997     47.012800000000006
C      50.188099999999991     47.497869999999999     47.001500000000000
C      49.795500000000004     46.454799999999999     44.245799999999996
C      52.954399999999993     45.195419999999999     50.080300000000001
C      54.003499999999988     44.093930000000000     50.339599999999997
C      54.459399999999988     43.398348999999996     48.980100000000000
C      51.502499999999998     44.490440000000000     43.520599999999995
H      42.094799999999992     50.776490000000003     43.601099999999995
H      45.884399999999985     51.407240000000002     49.901400000000002
H      44.036199999999994     52.550429999999999     48.649899999999995
H      50.466699999999989     51.347960000000000     50.421600000000005
H      42.743099999999998     53.530749999999998     42.897100000000002
H      40.313599999999994     52.591419999999999     45.414999999999999
H      41.556100000000001     53.061650000000000     47.848099999999995
H      53.513800000000003     49.480910000000002     46.697600000000001
H      52.580599999999990     50.147889999999990     49.071900000000007
H      43.650899999999993     52.172470000000004     42.913999999999994
H      44.605599999999995     50.334609999999998     43.338500000000003
H      45.911000000000001     49.953609999999998     41.642100000000006
H      47.670100000000005     50.567729999999997     41.735999999999997
H      47.430699999999987     49.085250000000002     41.446099999999994
H      46.666899999999998     48.513849999999998     45.662500000000001
H      47.466200000000001     47.774259999999998     43.976499999999994
H      49.113799999999998     52.037840000000003     51.718799999999995
H      47.450199999999995     52.704340000000002     51.617799999999995
H      53.523799999999994     49.110050000000001     44.587100000000000
H      51.550499999999985     48.827640000000002     43.864799999999995
H      52.277399999999986     50.182519999999997     43.586899999999993
H      43.926400000000001     53.481850000000001     44.032199999999996
H      49.857200000000006     50.084449999999990     43.536300000000004
H      48.284499999999994     52.986150000000002     50.285199999999996
H      47.630700000000004     49.621319999999997     51.765700000000002
H      54.266899999999993     43.271878999999998     46.155200000000001
H      54.183299999999988     46.551049999999996     51.049399999999999
H      51.940100000000001     46.363659999999996     42.817100000000003
H      49.282599999999988     48.120840000000001     47.131300000000003
H      49.212900000000005     47.194749999999999     43.702400000000004
H      49.189999999999998     45.493200000000002     44.352200000000003
H      51.987700000000004     44.878720000000001     50.469400000000000
H      53.855400000000003     43.282015999999999     51.138299999999994
H      54.856600000000000     44.429899999999996     50.878099999999996
H      55.686400000000006     43.327655000000000     48.851999999999997
H      53.991000000000000     42.469250000000002     48.861600000000003
H      52.149900000000002     44.054060000000000     42.773900000000005
H      50.276699999999991     44.038919999999997     43.689100000000003
N      49.410799999999995     50.030869999999993     44.561299999999996
O      41.612099999999998     48.658580000000001     46.241199999999999
O      55.154299999999992     46.358680000000000     46.577400000000004
O      52.419600000000003     47.763950000000001     54.553900000000006
O      46.481599999999986     47.290239999999997     47.861799999999995
