18

C      48.125999999999998     48.799049999999994     48.452149999999989
C      48.013100000000009     47.788250000000005     47.366949999999996
C      46.981200000000001     49.592550000000003     48.466050000000003
C      46.875200000000007     47.753450000000001     46.438949999999998
C      49.014700000000005     48.733549999999994     49.542149999999999
C      48.951000000000008     46.719650000000001     47.345449999999992
C      45.829700000000003     49.597049999999996     47.536650000000002
C      45.892899999999997     48.710750000000004     46.382849999999998
C      49.983699999999999     47.727350000000001     49.314950000000003
C      49.949100000000001     46.527950000000004     48.430549999999997
H      47.093200000000010     50.116150000000005     49.457550000000005
H      47.031800000000004     47.009050000000002     45.747849999999993
H      48.884399999999999     49.476950000000002     50.439850000000000
H      48.941600000000008     45.865049999999997     46.613949999999996
H      45.174700000000001     50.455250000000007     47.805850000000000
H      45.321399999999997     48.812849999999997     45.560150000000000
H      50.825299999999999     47.673749999999998     50.132149999999989
H      50.606600000000000     45.544749999999993     48.629649999999991
