18

C      47.574599999999990     47.546799999999983     48.554499999999990
C      48.428800000000010     48.273499999999999     47.436999999999998
C      46.522900000000007     48.407799999999995     49.043799999999997
C      48.381500000000003     49.508600000000001     46.945799999999998
C      47.342100000000002     46.193799999999996     49.062900000000006
C      49.339500000000001     47.225200000000001     47.115699999999997
C      46.425400000000010     49.792199999999994     48.523899999999998
C      47.222900000000010     50.270600000000002     47.412599999999998
C      48.432299999999998     45.450099999999992     48.598599999999998
C      49.507500000000007     45.932800000000000     47.732700000000001
H      45.866699999999994     48.061999999999998     49.883500000000005
H      49.043400000000005     49.952500000000001     46.116499999999995
H      46.611000000000004     45.875999999999991     49.657299999999999
H      50.188900000000004     47.376099999999994     46.545200000000001
H      45.667199999999994     50.640400000000000     48.975099999999998
H      47.088300000000004     51.269599999999997     46.968600000000002
H      48.403199999999998     44.730400000000003     49.479300000000002
H      50.332800000000006     45.432199999999995     47.490199999999994
