16

C      47.903549999999989     47.407849999999996     48.129899999999992
C      47.975250000000003     48.966149999999999     48.389500000000005
C      47.465049999999998     47.015650000000008     49.444700000000005
C      47.197149999999993     49.455749999999995     49.471899999999998
C      48.383749999999992     46.577150000000003     47.040500000000002
C      48.669849999999997     49.604349999999997     47.279400000000003
C      47.035349999999994     48.166350000000008     50.120100000000001
C      49.009649999999993     47.299450000000007     45.960100000000004
C      49.260850000000005     48.771450000000002     46.137599999999999
H      47.413749999999993     46.068049999999999     50.000300000000003
H      47.278549999999996     50.376249999999999     50.030300000000004
H      48.015349999999998     45.316950000000006     47.454000000000001
H      48.757649999999998     50.683049999999994     47.354499999999994
H      46.739149999999995     47.994949999999989     51.104300000000002
H      49.081350000000000     46.850049999999996     44.895699999999998
H      48.728949999999998     49.572950000000006     45.467400000000005
