5

C      47.917299999999990     48.518199999999986     47.554599999999986
C      47.402299999999997     47.341899999999995     47.930999999999997
H      48.138099999999994     46.946299999999994     48.682599999999994
H      47.682299999999998     46.503500000000003     47.317400000000006
O      48.597700000000003     49.496499999999997     47.728700000000003
