18

C      47.832499999999989     48.258049999999997     48.580499999999994
C      48.471099999999993     47.555550000000004     47.446500000000000
C      47.514800000000001     47.588550000000005     49.760599999999997
C      48.756500000000003     46.076550000000005     47.531900000000000
C      47.349499999999999     49.634850000000007     48.563299999999998
C      48.515099999999997     48.356349999999999     46.204900000000002
C      47.752899999999997     46.099550000000001     49.908599999999993
C      48.503399999999999     45.527350000000006     48.825100000000006
C      47.537599999999998     50.438450000000010     47.425300000000000
C      48.139099999999999     49.734349999999999     46.322800000000001
H      46.841999999999999     48.042850000000008     50.471000000000004
H      49.158000000000001     45.328049999999998     46.759799999999998
H      47.068100000000001     50.280750000000005     49.650100000000009
H      49.078800000000001     47.714550000000010     45.411000000000001
H      47.258299999999998     45.422050000000006     50.588999999999999
H      48.804999999999993     44.476649999999999     48.409100000000002
H      47.192000000000000     51.523350000000001     47.478400000000001
H      48.116599999999991     50.445650000000008     45.479799999999997
