18

C      48.357449999999993     47.173899999999989     48.228744999999989
C      47.822550000000000     48.619099999999996     47.863514999999992
C      47.656350000000003     46.441099999999999     49.162385000000000
C      46.437249999999999     48.712399999999995     48.230384999999998
C      49.766449999999992     46.858300000000007     47.679594999999992
C      48.625250000000001     49.407800000000002     46.874844999999993
C      46.381349999999998     46.689200000000007     49.728465000000000
C      45.716149999999999     47.728299999999997     49.078734999999995
C      50.394250000000000     47.677200000000006     46.659094999999994
C      49.731350000000006     48.964400000000005     46.268014999999991
H      48.297049999999999     45.503899999999994     49.407304999999994
H      46.004149999999996     49.737100000000005     48.109434999999991
H      50.365549999999999     46.078300000000006     47.905904999999990
H      48.284849999999999     50.496100000000006     46.722454999999997
H      45.962249999999997     46.344900000000003     50.559004999999999
H      44.816850000000002     48.316099999999999     49.569204999999982
H      51.183149999999998     47.248300000000008     46.105705000000000
H      50.061549999999997     49.737800000000000     45.440995000000001
