6

C      47.521749999999997     47.657699999999991     47.686749999999989
C      48.432649999999995     48.545500000000004     48.255849999999995
H      49.551450000000003     48.236999999999995     48.612750000000005
H      46.448549999999997     47.938100000000006     47.387249999999995
H      48.045550000000006     46.595200000000006     47.577449999999999
H      48.084950000000006     49.404799999999994     48.525050000000007
