18

C      47.736949999999993     47.847999999999992     48.477399999999989
C      48.454650000000008     48.318700000000007     47.207299999999996
C      46.385349999999995     47.912199999999999     48.836599999999997
C      47.552050000000001     48.776000000000010     46.204199999999993
C      48.570150000000005     47.510100000000008     49.780499999999996
C      49.947150000000001     48.050600000000003     46.956499999999998
C      45.509450000000001     48.011099999999999     47.683599999999991
C      46.094249999999995     48.239800000000002     46.334599999999995
C      49.980449999999998     47.175899999999999     49.505099999999992
C      50.470250000000000     47.357399999999998     48.175399999999996
H      46.145449999999997     48.166899999999998     49.809699999999999
H      48.012650000000001     49.193899999999999     45.268999999999998
H      48.275449999999999     47.323500000000010     50.731000000000002
H      50.747449999999994     48.415199999999999     46.319699999999990
H      44.473549999999996     48.079800000000006     47.535599999999995
H      45.465849999999996     48.245800000000003     45.398299999999999
H      50.773350000000001     46.806100000000001     50.020800000000001
H      51.526450000000004     47.168600000000012     47.733999999999995
