28

C      49.907149999999994     46.579149999999991     46.168549999999996
C      50.678849999999997     47.651949999999999     46.702949999999987
C      45.925350000000002     49.025750000000002     47.793850000000006
C      46.789050000000003     49.880749999999992     48.578749999999999
C      48.523949999999999     46.541849999999997     46.514949999999999
C      50.143949999999997     48.744749999999996     47.523250000000004
C      46.556049999999999     47.911649999999995     47.214950000000002
C      48.201050000000002     49.523550000000000     48.740449999999996
C      47.992550000000001     47.927149999999997     46.731349999999992
C      48.737450000000003     48.753349999999998     47.671250000000001
C      50.799149999999997     45.528749999999988     45.796050000000008
C      52.113050000000001     46.068649999999991     46.227550000000008
C      52.097549999999998     47.381949999999989     46.817049999999995
C      44.428849999999997     49.130249999999990     47.995750000000001
C      44.070250000000001     50.167850000000001     48.957149999999999
C      45.098849999999999     50.804749999999999     49.789550000000006
C      46.489750000000001     50.953350000000000     49.593249999999998
H      47.838850000000001     45.649450000000002     46.250249999999994
H      50.620449999999998     49.436349999999990     48.124049999999997
H      45.498849999999997     47.439349999999990     47.020949999999999
H      48.767449999999997     49.672249999999991     49.814250000000001
H      50.470750000000010     44.571050000000000     45.286550000000005
H      52.838850000000008     45.409250000000000     46.521749999999997
H      52.898850000000003     48.058349999999990     46.975849999999994
H      44.008949999999999     48.410749999999993     47.257249999999999
H      43.101149999999997     50.450049999999990     49.305350000000004
H      44.783650000000002     51.428950000000000     50.713449999999995
H      47.288550000000001     51.400149999999996     50.238749999999996
