18

C      47.640250000000002     48.490549999999992     47.751214999999988
C      48.231850000000009     47.341650000000001     48.585175000000000
C      47.929749999999999     49.798349999999999     48.451094999999988
C      49.218850000000003     47.536149999999999     49.637304999999991
C      46.975750000000005     48.416350000000001     46.530784999999995
C      47.834550000000007     46.104550000000003     47.894124999999995
C      48.750349999999997     49.849050000000005     49.653104999999996
C      49.537850000000006     48.707250000000002     50.160705000000000
C      46.371450000000010     47.126649999999998     46.099274999999999
C      46.915250000000000     46.020650000000003     46.769344999999994
H      47.689450000000008     50.747550000000004     48.068684999999995
H      49.777050000000003     46.701850000000000     50.110104999999997
H      46.522750000000002     49.168650000000000     45.875884999999997
H      48.100149999999999     45.172850000000004     47.864954999999988
H      48.866250000000008     50.970849999999999     49.886104999999993
H      50.219949999999997     48.709350000000001     50.938504999999999
H      45.780050000000003     47.027549999999998     45.061495000000001
H      46.482550000000003     45.029150000000001     46.430854999999994
