102

C      47.112049999999996     49.388490000000004     46.265199999999993
C      48.882850000000012     48.388400000000004     47.830699999999993
C      50.513449999999999     52.016160000000013     43.050799999999995
C      47.809150000000010     50.193930000000009     45.420199999999994
C      48.005150000000000     51.667360000000002     43.829099999999997
C      50.507650000000005     52.413910000000001     41.672200000000004
C      48.709250000000004     51.221339999999998     44.882199999999997
C      49.353550000000006     52.349869999999996     43.973600000000005
C      44.659350000000003     52.677920000000000     46.498400000000004
C      43.966250000000002     53.311769999999996     47.497099999999989
C      50.199549999999995     48.399320000000003     47.834100000000007
C      49.586050000000000     48.480680000000007     49.076799999999992
C      46.312950000000001     50.194429999999997     45.515600000000006
C      45.095350000000003     51.967030000000008     47.647800000000004
C      42.391950000000001     53.928200000000004     49.342900000000000
C      43.146149999999999     54.142900000000012     48.213200000000001
C      45.143950000000004     52.732430000000008     44.963300000000004
C      45.833250000000000     51.462020000000010     44.648700000000005
C      44.390850000000000     51.451000000000008     44.048000000000002
C      46.518149999999999     51.277070000000009     43.216800000000006
C      43.074050000000007     50.809380000000004     44.718800000000002
C      49.163850000000004     52.801479999999998     40.996099999999998
C      41.583950000000002     51.562850000000012     45.187200000000004
C      47.247450000000001     48.618470000000002     47.513899999999992
C      41.956650000000003     54.685800000000000     47.691599999999994
C      51.449049999999993     48.809490000000011     47.106899999999996
C      50.367350000000009     55.526300000000006     46.305999999999997
C      49.616849999999999     54.463499999999996     45.716099999999997
C      49.735550000000011     46.011150000000001     53.792699999999996
C      54.103649999999995     44.934210000000007     48.409899999999993
C      49.015449999999994     46.571660000000008     52.640900000000002
C      54.437450000000005     43.536506000000003     48.403499999999994
C      50.932749999999992     45.125940000000014     53.694599999999994
C      53.121950000000005     45.174220000000005     49.479100000000003
C      49.780050000000003     45.783010000000004     50.279299999999992
C      53.944650000000003     43.002899999999997     49.590299999999999
C      51.779450000000004     44.105818000000014     54.568299999999994
C      52.493549999999999     42.914600000000007     54.084099999999992
C      52.504749999999994     40.199900000000014     53.719200000000001
C      51.337050000000012     44.890180000000001     52.365399999999994
C      53.185549999999999     44.027219000000002     50.445700000000002
C      52.287649999999992     41.594500000000011     53.486199999999997
C      50.904750000000000     45.587760000000003     51.237099999999998
C      52.345250000000000     44.019607000000008     51.794199999999989
C      52.565850000000005     42.810400000000001     52.647999999999996
C      48.724049999999998     45.720150000000004     54.973999999999990
C      47.599049999999998     46.413540000000012     54.547899999999998
C      47.648250000000004     46.807190000000006     53.152000000000001
C      49.851649999999999     46.696740000000005     51.367599999999996
C      48.749050000000004     44.848610000000008     55.980300000000000
C      47.460249999999995     45.757050000000007     48.875799999999998
C      48.760850000000012     45.230790000000013     49.196299999999994
C      49.985550000000003     48.169550000000001     50.634399999999999
C      53.589050000000000     43.965016000000006     54.740600000000001
C      47.658250000000002     44.461830000000006     49.938899999999990
H      51.275250000000007     51.804530000000000     43.781499999999994
H      51.308450000000001     52.118310000000008     41.051900000000003
H      42.240150000000007     54.798000000000002     50.010599999999997
H      45.777250000000002     53.514399999999995     44.668499999999995
H      44.253750000000004     51.658600000000007     42.910100000000000
H      46.292650000000002     50.178190000000001     43.005300000000005
H      46.126049999999999     51.872240000000005     42.508899999999997
H      43.538350000000001     50.042630000000003     45.486599999999996
H      42.582550000000005     50.521400000000014     43.871499999999997
H      48.149750000000004     52.523140000000012     41.431200000000004
H      49.105650000000004     52.554650000000009     39.558300000000003
H      48.857449999999993     53.786900000000003     40.995400000000004
H      41.050649999999997     50.592180000000013     45.638599999999997
H      41.653350000000003     52.487049999999996     45.798599999999993
H      41.061250000000001     52.072230000000005     44.446299999999994
H      46.583050000000000     47.787140000000008     47.573899999999995
H      46.910350000000001     49.189660000000003     48.308699999999988
H      52.169549999999994     49.464420000000004     47.449399999999997
H      42.299550000000004     55.824500000000000     47.226799999999997
H      41.291249999999998     53.994400000000013     47.120799999999988
H      51.990150000000000     47.697820000000007     46.997499999999988
H      51.357150000000004     49.282210000000006     45.798199999999994
H      49.562150000000010     53.534700000000001     46.397699999999986
H      50.229049999999994     54.231900000000010     43.676299999999998
H      54.608650000000004     45.563410000000005     47.562200000000004
H      54.949350000000003     43.093400000000017     47.429800000000000
H      52.407950000000007     46.035760000000010     49.619000000000000
H      54.223450000000000     42.154400000000010     50.048099999999991
H      51.317050000000002     43.920581000000013     55.499200000000002
H      52.566549999999999     39.824700000000007     54.767399999999995
H      52.473649999999999     39.375999999999991     53.003299999999996
H      46.811150000000005     46.700140000000005     55.161599999999993
H      46.937350000000002     47.341520000000003     52.349199999999996
H      47.690249999999999     44.466260000000005     56.441699999999997
H      49.564550000000004     44.281675000000007     56.369699999999995
H      47.218450000000011     46.058320000000009     47.800500000000000
H      47.258949999999999     46.591920000000002     49.368099999999998
H      49.202650000000013     44.415000000000006     48.505899999999997
H      49.302050000000001     48.682330000000007     51.381900000000002
H      51.079349999999998     48.749050000000011     50.863199999999992
H      46.651450000000004     44.134647000000001     49.783699999999996
H      47.784950000000002     44.673240000000007     51.060699999999997
H      41.978250000000003     53.089480000000009     49.728999999999999
N      49.426950000000005     53.947600000000008     44.430400000000006
O      45.980650000000004     51.838580000000007     48.351299999999995
O      50.347950000000004     56.624000000000009     46.477300000000000
O      54.532649999999997     43.487984000000012     55.116500000000002
