18

C      47.351144999999988     48.296999999999983     48.387429999999995
C      48.762985000000015     48.332400000000000     48.213929999999998
C      46.417365000000004     49.150500000000001     47.646129999999999
C      49.379485000000003     49.418799999999997     47.271230000000003
C      46.854525000000010     47.434699999999999     49.421129999999998
C      49.632385000000014     47.227100000000000     48.628030000000003
C      47.015115000000009     50.002400000000002     46.710729999999998
C      48.483185000000006     50.003299999999989     46.535829999999997
C      47.638035000000002     46.371299999999998     49.809229999999992
C      49.064685000000011     46.186699999999995     49.385030000000008
H      45.384415000000004     48.990499999999990     47.666330000000002
H      50.488985000000014     49.554899999999996     47.259030000000003
H      45.879165000000000     47.066899999999997     49.798130000000000
H      50.615584999999996     47.170899999999996     48.480029999999992
H      46.361305000000002     50.677000000000000     45.863920000000000
H      49.056985000000012     50.641399999999997     45.772869999999998
H      47.383125000000007     45.428199999999997     50.227130000000002
H      49.441485000000000     45.323000000000000     49.849530000000001
