126

C      44.008089999999989     52.523999999999994     49.008749999999992
C      41.792689999999993     53.767699999999998     49.515349999999998
C      46.837189999999993     49.408200000000001     50.611650000000004
C      47.358996000000005     50.638100000000001     50.077850000000005
C      44.713989999999995     51.298000000000002     49.517150000000008
C      46.419789999999992     51.505099999999999     49.424149999999997
C      44.909089999999992     46.381200000000000     49.741350000000004
C      45.355989999999991     50.547199999999997     48.611550000000001
C      44.454389999999989     49.896999999999998     49.955949999999994
C      44.631789999999995     53.686599999999999     48.417650000000002
C      43.688089999999988     54.859200000000001     48.104349999999997
C      42.472089999999994     54.842299999999994     48.779249999999998
C      42.705589999999987     52.596199999999996     49.513449999999999
C      45.527289999999994     48.938200000000002     50.679349999999992
C      44.843889999999988     46.204900000000002     51.141849999999998
C      45.365389999999991     47.483300000000000     50.512250000000002
C      44.205389999999994     45.109000000000002     51.943549999999995
C      46.124089999999995     53.746600000000001     48.206949999999999
C      46.193689999999989     54.656999999999996     46.846750000000000
C      44.180289999999999     56.000699999999995     47.405049999999996
C      45.318889999999996     55.810200000000009     46.404049999999998
C      47.059331999999998     52.830300000000001     48.848749999999995
C      47.301015999999997     54.098200000000006     49.576450000000001
C      48.473320000000001     49.758499999999998     50.756750000000004
C      48.114629999999991     52.266599999999997     47.824849999999998
C      48.861440000000002     50.795600000000000     48.023150000000001
C      48.511380000000003     54.702700000000000     49.303249999999998
C      49.845620000000004     50.240899999999996     46.905749999999998
C      46.616889999999998     54.879999999999995     50.653050000000000
C      49.204610000000002     54.477499999999992     50.803549999999994
C      44.961689999999990     50.580999999999996     47.148449999999997
C      49.998999999999995     44.998300000000000     49.326650000000001
C      48.876320000000007     44.134000000000000     49.715249999999990
C      53.253369999999990     41.128399999999999     48.821750000000002
C      52.241109999999999     40.166699999999999     49.336950000000002
C      51.379649999999998     44.454099999999997     49.229549999999996
C      49.321210000000008     42.701499999999996     49.816749999999992
C      53.167240000000007     42.648600000000002     49.005049999999997
C      50.877349999999993     40.625399999999999     49.823249999999994
C      51.746540000000003     43.055599999999998     49.378849999999993
C      50.640410000000003     42.096499999999999     49.760650000000005
C      49.690910000000002     46.391999999999996     49.396549999999998
C      48.483100000000007     46.899699999999996     50.182250000000003
C      47.918841000000000     46.002099999999999     51.124549999999992
C      47.977341000000003     44.624400000000001     50.730849999999997
C      54.762110000000000     40.503200000000000     49.248049999999999
C      55.031050000000000     38.935000000000002     49.322049999999997
C      53.748249999999999     38.200499999999998     49.387849999999993
C      52.523510000000002     38.777199999999993     49.653950000000002
C      50.996670000000009     47.200600000000001     49.670150000000000
C      50.506430000000002     48.347899999999996     50.438049999999997
C      48.995729999999995     48.437799999999996     50.375650000000000
C      52.408220000000000     46.895199999999996     49.480049999999999
C      52.507260000000002     45.508899999999997     49.142649999999996
C      53.934080000000002     44.972799999999999     49.032649999999997
C      54.219029999999997     43.584800000000001     49.174549999999989
C      52.561979999999991     40.623500000000000     47.636350000000000
C      47.832459000000000     42.308999999999997     50.258949999999992
C      47.548064000000011     43.222799999999999     51.595049999999993
C      55.078190000000006     40.510500000000000     50.675350000000002
C      51.368589999999998     40.825899999999997     46.666849999999997
C      47.722665000000006     46.460099999999997     52.638950000000001
C      55.526750000000000     39.420600000000000     48.098050000000001
C      47.137554000000009     56.174800000000005     43.343849999999996
C      46.512490000000000     56.764099999999999     44.615449999999996
C      47.542967000000004     55.816999999999993     44.689349999999997
C      46.657190000000000     56.321799999999996     47.114449999999998
C      46.492289999999997     57.283299999999997     48.261449999999996
C      45.170589999999990     56.366000000000000     45.149650000000001
C      46.568889999999996     57.552299999999995     43.298949999999998
H      44.552389999999988     45.707400000000000     49.127149999999993
H      41.771389999999997     55.577700000000007     48.573949999999996
H      42.488489999999999     51.640999999999998     49.814249999999994
H      46.600289999999987     53.966299999999990     46.114649999999997
H      43.546189999999996     56.931100000000001     47.434249999999999
H      49.064959999999999     52.669299999999993     47.856549999999999
H      47.953778000000000     52.245599999999996     46.730150000000002
H      47.897544999999994     50.192000000000000     48.026550000000000
H      49.370459999999994     50.791100000000000     49.011050000000004
H      49.082200000000000     54.260700000000000     48.493249999999996
H      48.640360000000001     55.755899999999997     48.808549999999997
H      49.867429999999999     48.910899999999998     47.315849999999998
H      49.370310000000003     50.354399999999998     45.827849999999998
H      50.699449999999999     50.733499999999999     47.229949999999995
H      46.257489999999990     54.406700000000001     51.570150000000005
H      45.637789999999995     55.256500000000003     50.261549999999993
H      46.721089999999990     55.897300000000001     50.957749999999997
H      49.053579999999997     53.339100000000002     50.975349999999999
H      49.865749999999998     55.199700000000000     51.108349999999994
H      48.588970000000003     54.888199999999998     51.490850000000002
H      44.427389999999988     49.589700000000001     46.825649999999996
H      45.867989999999992     50.433099999999996     46.657150000000001
H      44.127589999999998     51.185600000000001     46.836449999999999
H      43.433290000000000     49.591699999999996     49.701850000000000
H      50.205529999999996     39.901800000000001     50.302050000000001
H      55.807569999999998     38.346999999999994     49.812750000000001
H      51.838269999999994     37.972999999999999     49.941349999999993
H      51.349260000000001     48.945699999999995     50.694749999999992
H      53.153019999999998     47.652299999999997     49.365349999999999
H      55.398859999999999     43.204499999999996     48.877150000000000
H      54.810270000000003     45.439499999999995     48.888950000000001
H      53.125190000000003     39.972600000000000     47.105049999999999
H      46.921789999999987     42.368099999999998     49.688349999999993
H      47.961205999999990     41.234600000000000     50.337749999999993
H      46.609489999999994     42.845599999999997     51.498449999999998
H      47.908633000000002     43.105399999999996     52.592250000000000
H      50.691789999999997     40.053899999999999     46.585149999999999
H      51.354069999999993     41.473099999999995     45.908049999999996
H      50.436770000000010     41.325400000000002     47.078849999999996
H      46.971789999999999     45.885100000000001     53.082050000000002
H      47.722669000000003     47.651899999999998     52.698550000000004
H      48.742699999999999     46.433599999999998     53.123650000000005
H      56.510310000000004     39.590699999999998     47.548949999999998
H      53.753870000000006     37.170000000000002     49.582550000000005
H      54.831080000000000     39.401200000000003     47.159549999999996
H      40.126189999999994     52.854099999999988     50.601049999999994
H      47.748721000000003     54.654399999999995     44.591349999999998
H      47.390940000000001     56.716800000000006     46.333449999999999
H      44.247389999999996     56.173600000000008     44.568849999999998
H      46.767089999999996     58.829999999999998     42.876349999999995
H      39.489689999999996     54.328199999999995     49.248049999999999
N      40.373790000000000     53.570099999999996     49.685849999999995
O      48.870559999999998     49.756099999999996     51.914549999999998
O      43.789389999999997     44.118400000000001     52.250650000000000
O      55.376010000000001     40.838099999999997     51.716349999999998
O      46.312089999999998     58.042400000000001     49.061050000000002
