18

C      47.802599999999991     47.923849999999995     47.160719999999998
C      47.812100000000001     47.783650000000002     48.612339999999989
C      47.108699999999999     49.058850000000007     46.647980000000004
C      47.024799999999999     48.765150000000006     49.437119999999993
C      48.677300000000002     46.908149999999999     46.566069999999996
C      48.637600000000006     46.839150000000004     49.285119999999992
C      46.611699999999999     50.086550000000003     47.521950000000004
C      46.479600000000005     49.932850000000002     48.930560000000000
C      49.552599999999998     45.897149999999996     47.160429999999991
C      49.441299999999998     45.751149999999996     48.677210000000002
H      47.597000000000008     49.367549999999994     45.547939999999997
H      46.876300000000001     48.397050000000000     50.506259999999997
H      48.683900000000008     46.900350000000003     45.493740000000003
H      48.445700000000002     46.770550000000000     50.363669999999985
H      46.438000000000002     51.080150000000003     47.121759999999995
H      45.961600000000004     50.553950000000000     49.458720000000000
H      50.038399999999996     45.028050000000000     46.772819999999996
H      49.858699999999999     44.919849999999997     49.330159999999992
