18

C      48.122849999999985     47.223399999999998     48.550899999999984
C      48.025450000000006     48.552800000000005     47.682599999999994
C      48.764950000000013     45.989100000000008     48.039100000000005
C      48.364549999999994     48.481200000000001     46.266300000000001
C      47.578450000000004     47.459299999999999     49.854600000000005
C      47.771450000000002     49.934100000000001     48.151799999999994
C      49.034750000000003     45.890400000000000     46.671099999999996
C      48.961350000000010     47.172100000000000     46.036100000000005
C      47.014949999999999     48.777400000000000     50.053799999999995
C      46.981449999999995     50.026300000000006     49.293700000000001
H      48.907350000000008     45.108599999999996     48.555199999999999
H      48.472050000000010     49.326800000000006     45.594300000000004
H      47.598950000000002     46.617300000000000     50.703800000000001
H      48.173749999999998     50.815300000000008     47.569900000000004
H      49.463750000000005     45.039200000000008     46.136700000000005
H      49.218450000000004     46.962699999999998     45.064800000000005
H      46.536249999999995     48.988600000000005     50.935199999999995
H      46.672849999999997     50.960799999999992     49.684299999999993
