18

C      48.637349999999998     47.904699999999991     47.761009999999985
C      47.427250000000001     47.972400000000000     48.590109999999996
C      49.877650000000003     48.734000000000002     47.748810000000006
C      47.566649999999996     48.580000000000005     49.810910000000007
C      48.195449999999994     47.159500000000001     46.547309999999996
C      46.199349999999995     47.107599999999998     48.346010000000007
C      49.884749999999997     49.418600000000005     49.029010000000000
C      48.894049999999993     49.159200000000006     50.029610000000005
C      46.963949999999997     46.826999999999998     45.970609999999994
C      45.859349999999992     46.824199999999998     46.926010000000005
H      50.609949999999998     48.054899999999996     47.038510000000002
H      46.943250000000006     48.552199999999992     50.607510000000005
H      49.095150000000004     47.137099999999997     45.854039999999998
H      45.393950000000004     46.936699999999995     49.082509999999999
H      50.902749999999997     49.857199999999999     49.209610000000012
H      49.058049999999994     49.806899999999992     51.113609999999994
H      47.070549999999997     46.338199999999993     44.886390000000006
H      45.097250000000003     46.142800000000001     46.783209999999997
