18

C      47.809599999999996     47.236269999999990     48.033949999999997
C      48.365700000000004     48.331940000000003     47.229349999999997
C      48.377499999999998     46.210009999999997     49.025750000000002
C      49.695399999999992     47.925240000000002     46.961449999999999
C      46.605599999999995     47.682970000000012     48.614050000000006
C      47.570200000000000     49.594859999999997     46.916950000000000
C      49.772700000000000     46.575389999999999     49.162649999999999
C      50.363399999999999     47.450069999999997     48.107250000000008
C      45.721000000000004     48.799900000000008     48.276350000000008
C      46.097499999999997     49.679580000000001     47.241349999999997
H      47.945799999999991     45.502629999999996     49.723050000000001
H      50.298400000000001     48.583250000000007     46.232450000000000
H      46.545900000000003     46.980720000000005     49.372550000000004
H      48.095600000000005     50.260649999999998     46.297650000000004
H      50.393100000000004     46.033490000000000     49.767550000000000
H      51.395099999999999     47.612520000000004     47.973050000000001
H      44.604900000000001     48.927840000000003     48.670450000000002
H      45.501700000000000     50.497370000000004     46.816050000000004
