34

C      45.125249999999994     48.993249999999996     47.579834999999996
C      45.569049999999997     49.236850000000004     48.967447000000007
C      50.779149999999994     48.084150000000008     46.735534999999999
C      49.880949999999991     47.396850000000001     47.666235000000000
C      46.220750000000002     48.111249999999998     46.746634999999998
C      46.800849999999990     48.877549999999999     49.769695000000006
C      48.526449999999990     47.342349999999996     46.966534999999993
C      49.418249999999993     48.095950000000002     48.874175000000001
C      47.430749999999996     47.913550000000001     47.595334999999992
C      47.818549999999995     48.331950000000006     48.934531000000007
C      43.574049999999993     48.690550000000002     47.594835000000003
C      42.664449999999995     48.887550000000005     46.533334999999994
C      43.201549999999990     49.188150000000007     48.875282000000013
C      44.367649999999990     49.544150000000002     49.796085000000005
C      51.837649999999989     47.108450000000005     46.051935000000000
C      53.057349999999992     47.894649999999999     45.620435000000001
C      51.914949999999997     48.560450000000003     46.089834999999994
C      50.440949999999994     46.634050000000002     49.064611000000006
C      45.728450000000002     49.429450000000003     46.206434999999999
C      43.246049999999990     47.677350000000004     46.531835000000001
H      49.223049999999994     49.446950000000001     51.059565000000006
H      46.616549999999997     49.024950000000004     50.797165000000007
H      48.699249999999999     47.195350000000005     45.907034999999993
H      42.036949999999997     49.482849999999999     45.735934999999998
H      42.489649999999990     48.804450000000003     49.501395000000002
H      44.377149999999993     49.885850000000005     50.875035000000011
H      51.920349999999992     46.024349999999998     46.553134999999997
H      53.963050000000003     47.803049999999999     44.940434999999994
H      45.305149999999990     49.098550000000003     45.197535000000002
H      46.643250000000002     50.289749999999998     45.982235000000003
H      43.804650000000002     46.728549999999998     46.536734999999993
H      45.994449999999993     47.233350000000002     46.066334999999995
O      50.880949999999991     45.710250000000002     49.638325000000002
S      50.472349999999999     49.192549999999997     50.121945000000011
