69

C      50.457349999999984     50.605199999999982     50.029799999999987
C      51.978249999999989     47.868499999999997     50.514199999999988
C      47.676449999999988     45.826399999999992     47.152400000000000
C      48.688149999999993     45.149400000000000     46.319499999999998
C      48.762649999999994     49.162199999999999     46.799899999999994
C      48.681749999999994     47.991500000000002     47.856499999999997
C      47.958249999999992     46.833100000000002     48.167699999999996
C      49.214649999999992     49.798800000000000     45.560199999999995
C      49.222849999999994     50.514600000000002     46.876999999999995
C      49.311149999999998     46.949699999999993     48.780099999999997
C      50.386550000000000     51.276899999999998     47.245499999999993
C      50.843449999999990     51.220100000000002     48.679199999999994
C      46.295850000000002     45.248399999999990     46.799399999999991
C      46.099949999999993     44.250199999999992     45.693100000000001
C      47.199149999999989     43.727400000000003     44.885399999999997
C      48.368049999999997     44.146999999999991     45.267899999999997
C      51.496049999999997     50.821299999999994     44.969299999999997
C      50.539549999999991     49.865200000000002     44.804199999999994
C      52.225249999999988     51.034400000000005     43.771699999999996
C      52.789349999999999     52.250199999999992     43.741799999999998
C      45.043349999999990     45.401499999999999     47.585699999999996
C      43.697350000000000     44.805099999999996     47.387299999999996
C      43.505949999999999     44.296999999999997     46.010199999999998
C      44.794550000000001     44.050600000000003     45.252600000000001
C      46.561849999999993     47.227400000000003     48.792400000000001
C      45.512349999999998     45.959199999999996     48.857999999999997
C      50.011849999999995     45.460799999999992     46.704200000000000
C      50.723549999999989     44.947299999999998     45.548199999999994
C      49.937049999999999     43.893299999999996     44.926199999999994
C      51.792450000000002     51.358999999999995     47.621099999999998
C      51.319249999999997     51.885000000000005     46.063400000000001
C      51.300749999999994     45.865899999999996     44.341399999999993
C      44.459350000000001     46.327100000000002     49.929399999999994
C      48.142949999999999     50.575400000000002     44.737799999999993
C      50.544150000000002     50.529499999999999     52.367999999999995
C      50.098249999999993     46.775599999999997     50.049899999999994
H      47.908949999999990     49.972099999999998     43.729099999999995
H      52.504549999999995     48.474899999999991     51.288399999999996
H      46.969749999999991     43.108099999999993     43.919499999999999
H      50.507649999999998     49.211500000000001     43.854299999999995
H      51.957650000000001     50.280999999999992     42.950999999999993
H      42.486750000000001     43.948099999999997     45.816699999999997
H      44.533749999999998     43.312100000000001     44.509399999999999
H      45.865849999999995     48.070799999999991     48.372000000000000
H      46.712249999999997     47.627299999999991     49.674299999999995
H      46.118049999999997     45.063299999999998     49.318799999999996
H      51.620249999999999     44.199399999999997     45.937799999999996
H      50.222149999999999     42.888499999999993     45.319899999999997
H      50.180149999999998     43.409899999999993     43.832299999999996
H      52.693649999999991     50.792800000000000     47.538199999999996
H      50.542149999999992     46.261099999999999     47.322800000000001
H      51.976149999999990     52.795299999999997     45.940699999999993
H      42.842649999999992     44.942399999999992     48.038299999999992
H      50.869249999999994     45.561700000000002     43.207999999999998
H      52.309449999999998     45.505600000000001     44.741099999999996
H      51.143749999999997     46.688099999999991     44.711299999999994
H      44.445449999999994     47.492300000000000     50.271899999999995
H      45.149549999999991     45.928500000000000     50.771599999999999
H      43.517049999999998     45.868099999999998     49.836499999999994
H      48.372149999999991     51.706900000000005     44.596099999999993
H      47.403250000000000     50.447199999999995     45.422399999999996
H      51.228650000000002     51.188900000000004     52.450500000000005
H      49.765149999999991     50.619399999999999     53.049000000000007
H      51.086249999999993     49.682400000000001     52.643599999999992
H      49.559249999999992     47.396999999999991     50.820999999999998
H      50.106749999999991     45.721499999999992     50.365799999999993
O      49.866849999999999     50.059799999999996     50.947399999999995
O      51.528049999999993     47.251499999999993     49.593999999999994
O      53.513249999999999     53.111500000000007     44.010499999999993
