5

C      47.705349999999996     47.958699999999993     48.355049999999991
H      48.808050000000001     48.105200000000004     48.488750000000003
H      47.519250000000007     48.084899999999998     47.003149999999998
H      47.394650000000006     47.132100000000001     48.996850000000002
H      47.191949999999999     48.867899999999999     48.661350000000006
