17

C      48.465349999999994     47.434199999999990     48.065499999999993
C      48.285950000000000     48.599199999999996     48.847400000000007
C      49.296149999999997     46.336500000000001     48.455500000000001
C      48.866249999999994     48.373000000000005     50.174700000000001
C      47.626950000000001     47.298199999999994     46.908200000000001
C      47.749049999999997     49.648700000000005     47.871500000000005
C      49.607849999999999     46.117199999999997     49.855899999999991
C      49.558850000000000     47.242599999999996     50.719800000000006
C      46.910049999999998     48.285899999999998     46.076400000000000
C      46.736550000000001     49.611599999999996     46.792900000000003
H      49.425250000000005     45.503599999999992     47.753300000000003
H      49.049750000000003     49.129899999999992     50.999099999999999
H      47.527749999999997     46.581199999999995     46.091799999999999
H      47.880650000000003     50.733800000000002     47.968899999999998
H      49.894750000000002     45.266199999999998     50.276600000000002
H      46.657049999999998     48.019199999999998     45.000900000000001
H      46.105249999999998     50.382300000000001     46.529699999999998
