18

C      48.118949999999998     47.492349999999995     48.607399999999984
C      47.600850000000001     48.219449999999995     47.423499999999997
C      49.516650000000006     47.828050000000005     48.702999999999996
C      48.359850000000002     49.233150000000002     46.640799999999992
C      47.377750000000006     46.589950000000002     49.444099999999999
C      46.236050000000006     48.234250000000003     47.286399999999993
C      50.437450000000005     48.682450000000003     47.924199999999992
C      49.742550000000001     49.348750000000003     46.873299999999993
C      45.998550000000002     46.625450000000001     49.092999999999996
C      45.457950000000004     47.564850000000000     48.380699999999997
H      49.818850000000005     47.249350000000000     49.444499999999998
H      47.829550000000005     49.733249999999998     45.936500000000002
H      47.940950000000008     45.870449999999998     50.063499999999998
H      45.701150000000005     48.714849999999998     46.454400000000000
H      51.585349999999998     48.929649999999995     48.197699999999990
H      50.532249999999998     50.129550000000002     46.368900000000004
H      45.352450000000005     46.111350000000002     49.929799999999993
H      44.414650000000002     47.572950000000006     48.661899999999996
