18

C      48.086199999999991     47.289349999999992     47.851399999999991
C      47.412699999999994     48.510350000000003     47.792499999999997
C      48.290699999999994     46.573849999999993     49.127199999999995
C      47.064199999999992     49.035749999999993     49.132099999999994
C      48.853099999999991     46.887649999999994     46.634099999999997
C      47.142299999999999     49.318250000000006     46.700299999999999
C      47.935899999999997     47.219749999999998     50.427099999999996
C      47.246099999999991     48.446549999999988     50.424099999999996
C      48.560099999999998     47.819450000000003     45.515699999999995
C      47.784500000000001     49.066849999999988     45.444499999999998
H      49.067799999999998     45.623549999999994     49.250000000000000
H      46.323399999999999     50.070250000000001     49.084299999999999
H      49.676600000000001     46.274149999999999     46.677199999999999
H      46.550800000000002     50.376450000000006     46.855499999999999
H      48.032099999999993     46.641949999999994     51.399400000000000
H      46.680100000000003     48.885649999999998     51.255099999999999
H      48.980799999999995     47.442149999999998     44.600600000000000
H      47.661899999999996     49.823049999999995     44.619599999999998
