18

C      48.758599999999987     47.914299999999990     48.225999999999985
C      47.257399999999997     47.917100000000005     48.122100000000003
C      49.609199999999994     48.846599999999995     47.470299999999995
C      46.513499999999993     49.159800000000004     47.549300000000002
C      49.581899999999997     46.687200000000004     48.645800000000008
C      46.502299999999991     46.777200000000008     48.802199999999999
C      48.820100000000004     50.046999999999997     47.215299999999999
C      47.360599999999991     50.320700000000002     47.309600000000003
C      48.573299999999996     45.547200000000004     48.657399999999996
C      47.077699999999993     45.550200000000004     48.758800000000008
H      50.611600000000003     48.903400000000005     47.822000000000003
H      45.388399999999997     49.259299999999996     47.592900000000000
H      50.562899999999992     46.097000000000008     48.640400000000000
H      45.524499999999996     46.564400000000006     49.124800000000008
H      49.500599999999999     50.902900000000002     46.875199999999992
H      47.155599999999993     51.513599999999997     47.408400000000000
H      48.930599999999991     44.655299999999997     48.156800000000004
H      46.586999999999996     44.486400000000003     48.915199999999999
