65

C      50.057699999999990     48.364634999999993     47.304249999999989
C      50.856699999999989     48.547834999999999     48.598050000000001
C      44.704099999999997     44.943934999999989     50.500249999999994
C      49.026200000000003     47.418834999999994     47.046449999999993
C      50.669199999999989     47.507734999999990     49.606849999999994
C      45.492699999999999     44.433934999999998     49.339849999999998
C      47.589100000000002     45.561334999999993     48.308949999999996
C      49.279600000000002     45.789434999999990     50.553649999999990
C      48.685000000000002     46.551034999999992     48.111750000000001
C      49.653700000000001     46.525134999999999     49.435350000000000
C      47.124600000000001     44.647334999999991     49.345550000000003
C      48.029899999999998     44.930434999999996     50.481749999999991
C      50.289199999999994     49.375534999999992     46.147949999999994
C      51.065699999999993     50.559478000000006     46.206449999999990
C      51.768100000000004     50.818987000000000     47.476450000000000
C      51.724800000000002     49.750134999999993     48.570149999999998
C      49.699699999999993     49.257534999999997     44.819149999999993
C      49.847200000000001     50.336534999999991     43.853149999999999
C      50.517200000000003     51.644564999999993     44.140249999999995
C      51.256399999999999     51.664365000000004     45.293549999999996
C      48.548599999999993     48.276334999999996     44.793349999999990
C      48.228299999999997     47.343334999999989     45.814049999999995
C      47.142299999999999     46.333435000000001     45.983649999999997
C      46.793199999999999     45.522834999999993     46.979649999999992
C      52.349599999999995     52.183875000000000     47.660550000000001
C      53.010399999999990     52.316144999999999     48.970249999999993
C      53.225700000000003     51.210704000000000     49.766350000000003
C      52.462400000000002     49.915434999999995     49.709649999999996
C      51.971400000000003     47.427734999999991     50.506649999999993
C      52.530299999999997     48.943035000000002     50.667949999999990
C      46.083399999999997     44.230534999999996     46.860749999999996
C      44.847799999999999     44.193334999999998     47.885949999999994
C      43.276200000000003     44.794234999999993     51.061349999999990
C      52.931700000000006     46.472734999999993     49.381050000000002
C      44.572699999999998     45.384234999999997     48.902850000000001
C      46.131500000000003     46.358434999999993     44.666749999999993
C      43.024199999999993     43.682434999999991     52.259649999999993
H      44.052099999999996     43.887834999999988     52.683049999999994
H      47.162099999999995     44.199934999999989     51.385350000000003
H      49.562500000000000     46.114235000000001     51.627349999999993
H      49.064700000000002     50.739476000000003     43.156350000000003
H      50.565599999999996     52.526054999999992     43.547649999999990
H      51.871399999999994     52.503895000000000     45.607349999999997
H      47.843800000000002     48.139734999999995     43.909549999999996
H      52.345699999999994     53.070225000000001     47.096649999999997
H      53.519700000000000     53.196265000000004     49.334949999999992
H      53.938000000000002     51.417584999999995     50.614149999999995
H      51.995999999999995     46.934435000000001     51.586150000000004
H      53.470900000000000     49.057434999999991     51.147449999999992
H      51.579899999999995     49.133234999999992     51.415750000000003
H      46.727899999999998     43.420034999999991     47.087750000000000
H      46.003199999999993     43.910334999999996     45.773650000000004
H      44.094899999999996     43.841234999999990     47.370049999999992
H      42.998399999999997     45.594535000000000     51.788449999999997
H      45.346400000000003     45.772534999999998     50.893249999999995
H      52.862200000000001     46.679234999999998     48.354050000000001
H      53.904399999999995     46.564534999999999     49.444850000000002
H      52.991799999999998     45.341934999999999     49.743150000000000
H      44.944299999999998     46.495334999999990     48.671650000000000
H      46.256399999999999     45.518234999999997     44.020150000000001
H      46.263199999999998     47.305834999999995     44.301249999999996
H      44.991799999999998     46.178634999999993     45.202449999999999
H      42.570899999999995     44.454634999999989     50.152649999999994
H      42.061999999999998     43.692434999999996     52.843649999999997
H      42.427899999999994     42.803734999999996     51.943049999999999
