51

C      48.491249999999994     46.561549999999997     48.225849999999994
C      49.681349999999995     46.357449999999993     49.021149999999992
C      50.116149999999990     49.596550000000001     47.710849999999994
C      48.671849999999992     47.100749999999998     46.783550000000005
C      51.021549999999991     46.695050000000002     48.670249999999996
C      49.669349999999994     49.496649999999995     46.285650000000004
C      51.588449999999995     49.643849999999993     48.269749999999988
C      49.776849999999996     48.188750000000006     47.007350000000002
C      50.956649999999996     48.131049999999995     47.965649999999997
C      47.160749999999993     46.226750000000003     48.632549999999995
C      46.670450000000002     45.713249999999995     49.942449999999994
C      49.264649999999989     45.438849999999995     50.232950000000002
C      47.840649999999997     45.075949999999999     50.555949999999996
C      46.123450000000005     47.037650000000006     47.767650000000003
C      44.821449999999999     47.238250000000001     48.586250000000007
C      44.492450000000005     46.104149999999997     49.399850000000001
C      45.492750000000001     45.831949999999999     50.537849999999992
C      47.544049999999999     47.551949999999998     45.781649999999999
C      46.327550000000002     47.656050000000000     46.615250000000003
C      52.212649999999996     46.155849999999994     49.474449999999990
C      51.947850000000003     49.614650000000005     49.740150000000000
C      48.731849999999994     50.183450000000001     48.653149999999997
C      49.386150000000001     45.483250000000005     46.285449999999997
C      43.537250000000000     47.224449999999997     49.615549999999999
C      49.941549999999992     50.427849999999999     45.179450000000003
C      52.797749999999994     50.233849999999997     47.343450000000004
H      47.624449999999996     44.712349999999994     51.610849999999999
H      44.197350000000000     45.261249999999997     48.622249999999994
H      45.350650000000002     45.406349999999996     51.577950000000001
H      47.780550000000005     48.282549999999993     45.147949999999994
H      45.634649999999993     48.347950000000004     46.100750000000005
H      47.381850000000000     46.707450000000001     45.111950000000007
H      52.142749999999992     50.464250000000000     50.505849999999995
H      53.029150000000001     49.081849999999996     50.037149999999997
H      51.817250000000001     48.859649999999995     50.473950000000002
H      47.811849999999993     49.722950000000004     48.743649999999988
H      48.944849999999988     50.656550000000003     49.483149999999995
H      49.674349999999990     45.850950000000005     45.216750000000005
H      50.141549999999995     45.108150000000002     46.993350000000007
H      48.609049999999996     44.460349999999998     46.439350000000005
H      42.598050000000001     46.973149999999997     49.077050000000000
H      43.368549999999999     48.254749999999994     50.343949999999992
H      50.153850000000006     51.539650000000002     45.430350000000004
H      48.819049999999990     50.563549999999999     44.592749999999995
H      50.432450000000003     49.967250000000000     44.389150000000001
H      53.401949999999999     49.224250000000005     47.503249999999994
H      52.640450000000001     50.164949999999997     46.109750000000005
H      53.255150000000000     51.079249999999995     47.575450000000004
H      48.227850000000004     51.022950000000002     48.055949999999996
O      53.114050000000006     45.724950000000000     49.999049999999997
O      50.167649999999995     44.657549999999993     50.641249999999999
