18

C      48.287839999999989     48.135949999999994     47.274749999999990
C      48.131140000000002     47.785350000000001     48.722349999999992
C      48.055550000000004     47.135349999999995     46.346549999999993
C      48.681080000000001     46.533349999999992     49.189350000000005
C      47.831229999999998     49.439749999999997     46.753749999999997
C      47.765670000000000     48.964049999999993     49.614750000000001
C      48.324679999999994     45.773649999999996     46.783249999999995
C      48.597639999999991     45.719549999999991     48.199649999999991
C      47.372109999999999     50.532649999999997     47.578649999999996
C      47.393810000000002     50.243649999999995     49.005750000000006
H      47.919280000000001     47.201149999999991     45.238749999999996
H      48.903010000000002     46.373249999999992     50.363249999999994
H      47.547519999999999     49.474749999999993     45.596750000000000
H      47.581249999999997     48.790149999999990     50.761250000000004
H      48.434869999999997     44.880850000000002     45.897750000000002
H      48.779100000000007     44.597450000000002     48.412250000000000
H      47.143099999999997     51.402549999999998     46.905249999999995
H      47.096989999999998     51.153150000000004     49.728949999999998
