18

C      47.331199999999995     47.455399999999997     48.677449999999993
C      48.142600000000009     48.325199999999995     47.567650000000000
C      47.247099999999996     46.135099999999994     48.183750000000003
C      48.966600000000007     47.907699999999991     46.480850000000004
C      46.783300000000004     48.231899999999996     49.806250000000006
C      48.128499999999995     49.781000000000006     47.548050000000003
C      47.990000000000002     45.665000000000006     47.057550000000006
C      48.632799999999996     46.498599999999996     46.178250000000006
C      47.077000000000005     49.580600000000004     49.758250000000004
C      47.239700000000006     50.317400000000006     48.482950000000002
H      46.616000000000007     45.486999999999995     48.848150000000004
H      49.531900000000000     48.585699999999989     45.878650000000007
H      46.468100000000000     47.751900000000006     50.753150000000005
H      48.277800000000006     50.484700000000004     46.586349999999996
H      48.038100000000007     44.552800000000005     46.676150000000007
H      49.354999999999997     46.476399999999998     45.246849999999995
H      46.872199999999999     49.993799999999993     50.677850000000007
H      46.978900000000003     51.447199999999995     48.424350000000004
