18

C      47.284999999999982     47.831849999999996     48.684079999999994
C      48.027099999999997     47.599350000000001     47.500509999999991
C      46.214099999999995     48.795149999999992     48.766579999999990
C      47.700699999999991     48.201450000000008     46.270209999999992
C      47.982799999999990     47.074449999999999     49.679180000000002
C      49.346499999999999     46.989450000000005     47.325180000000003
C      46.122799999999991     49.683550000000011     47.775779999999997
C      46.854199999999999     49.392850000000003     46.552539999999993
C      49.110899999999994     46.228650000000002     49.632279999999994
C      49.790299999999995     46.214250000000000     48.436579999999992
H      45.524600000000000     48.547349999999994     49.678680000000000
H      48.275399999999998     48.252850000000009     45.411720000000003
H      47.302799999999998     47.112850000000002     50.588279999999997
H      50.047300000000000     47.185350000000000     46.414630000000002
H      45.311000000000000     50.407150000000001     47.840779999999995
H      46.772399999999998     49.981549999999999     45.606200000000001
H      49.525799999999997     45.592849999999999     50.430579999999992
H      50.689000000000000     45.618150000000000     48.634580000000000
