6

C      47.307899999999989     47.798549999999992     48.219020000000000
C      48.494000000000000     48.220150000000004     47.601630000000000
H      46.778799999999990     48.673150000000007     48.554689999999994
H      47.041799999999995     46.680650000000000     48.027950000000004
H      49.221200000000010     47.494150000000005     47.445310000000006
H      48.573300000000003     49.319350000000000     47.781080000000003
