18

C      48.401454999999991     47.196349999999995     47.666299999999993
C      48.160055000000000     48.483049999999999     48.234000000000002
C      48.382244999999998     46.899750000000004     46.330200000000005
C      47.467345000000002     49.473450000000007     47.473500000000001
C      48.698275000000010     46.363850000000006     48.840299999999992
C      48.439795000000004     48.962550000000000     49.638700000000007
C      48.202745000000000     48.093750000000007     45.476500000000001
C      47.598374999999997     49.370450000000012     46.057100000000005
C      48.672224999999997     46.702249999999999     50.272600000000004
C      48.647905000000009     47.995150000000002     50.556699999999999
H      48.781414999999996     45.840250000000005     46.001400000000004
H      47.405405000000002     50.602950000000000     47.855000000000011
H      48.696354999999997     45.397050000000000     48.464199999999998
H      48.392755000000001     50.112349999999999     49.870900000000006
H      48.439475000000002     47.894550000000002     44.455000000000005
H      47.138244999999998     50.026050000000005     45.029900000000005
H      48.861755000000002     46.066850000000002     51.340500000000013
H      48.808374999999998     48.403749999999995     51.544999999999995
