18

C      47.997099999999989     47.496149999999993     48.740799999999993
C      48.700800000000001     48.511450000000004     47.867199999999997
C      46.806100000000001     47.753450000000001     49.575099999999992
C      48.137699999999995     49.982250000000008     48.110699999999994
C      48.806399999999982     46.306049999999999     48.696699999999993
C      49.846799999999988     48.236049999999992     47.042199999999994
C      46.402699999999996     49.011050000000004     49.765799999999999
C      47.173099999999991     50.109050000000003     49.074500000000000
C      49.491199999999992     45.778250000000000     47.516899999999993
C      50.027699999999982     46.809650000000005     46.633299999999991
H      46.140099999999990     46.844550000000005     49.783000000000001
H      48.270399999999995     50.788550000000001     47.407799999999995
H      48.771799999999985     45.457550000000005     49.324500000000000
H      50.489800000000002     48.986450000000005     46.590299999999999
H      45.510199999999998     49.153449999999999     50.208399999999997
H      46.964399999999998     51.086950000000002     49.038999999999987
H      49.545199999999994     44.913049999999998     47.014799999999994
H      50.427899999999994     46.317350000000005     45.791600000000003
