18

C      47.484799999999993     47.829399999999993     48.514499999999991
C      48.467599999999990     48.608100000000000     47.711399999999998
C      46.014299999999992     47.812899999999999     48.224599999999995
C      47.933899999999994     48.967199999999998     46.408000000000001
C      47.960499999999996     47.204900000000002     49.766599999999997
C      49.828999999999994     48.658299999999997     48.127700000000004
C      45.457599999999999     48.235300000000002     47.048500000000004
C      46.539800000000000     48.882200000000005     46.218499999999992
C      49.321200000000005     47.209299999999999     49.930700000000002
C      50.475499999999997     47.921799999999998     49.206999999999994
H      45.497099999999989     47.112299999999998     48.804299999999998
H      48.669899999999998     49.452800000000003     45.699100000000001
H      47.296999999999997     46.624599999999994     50.501099999999994
H      50.582099999999997     49.196300000000001     47.498999999999995
H      44.396900000000002     48.078200000000002     46.728499999999997
H      46.357599999999991     49.268299999999996     45.307699999999997
H      49.387400000000000     46.547199999999997     50.692300000000003
H      51.603099999999998     47.710500000000003     49.101799999999997
