18

C      48.973379999999999     48.306289999999997     47.888749999999987
C      47.737922000000005     47.761550000000000     48.442850000000000
C      49.306760000000011     49.776589999999999     47.971249999999991
C      46.890759999999993     48.585679999999996     49.171749999999996
C      49.497450000000001     47.716320000000003     46.617649999999990
C      47.800395000000002     46.287739999999999     48.001550000000002
C      48.422083000000008     50.475189999999998     48.797449999999991
C      47.344260000000020     49.920590000000004     49.594849999999994
C      49.486220000000003     46.362610000000004     46.312849999999990
C      48.631020000000007     45.595340000000000     47.099249999999991
H      50.065340000000006     50.244590000000002     47.325849999999996
H      45.934659999999994     48.294740000000004     49.540749999999996
H      49.921360000000007     48.548569999999998     46.010249999999992
H      47.090060000000022     45.527659999999997     48.557049999999997
H      48.788910000000001     51.551890000000000     48.998150000000003
H      46.684160000000020     50.365790000000004     50.391050000000000
H      50.003840000000011     45.784779999999998     45.608950000000000
H      48.601030000000002     44.448110000000000     46.841649999999994
