18

C      48.119999999999990     48.096749999999993     47.362749999999991
C      47.338299999999997     47.496150000000000     48.484849999999994
C      49.488599999999998     47.687249999999999     47.189349999999990
C      48.355499999999999     46.731850000000001     49.287949999999995
C      47.385700000000000     48.842250000000000     46.327150000000003
C      45.894699999999993     47.739550000000001     48.727850000000004
C      50.393599999999999     46.935850000000002     48.047150000000002
C      49.812599999999996     46.444249999999997     49.287149999999997
C      46.000000000000000     49.245249999999999     46.519949999999994
C      45.400299999999994     48.771950000000004     47.812249999999992
H      49.572899999999997     48.228149999999999     46.323549999999997
H      48.014699999999998     46.291650000000004     50.412350000000004
H      48.047499999999999     49.410350000000008     45.587649999999996
H      45.390099999999997     47.364750000000001     49.566549999999992
H      51.630299999999998     46.759250000000002     48.170349999999999
H      50.482499999999995     46.135750000000002     50.202249999999992
H      45.484800000000000     49.864249999999998     45.871449999999996
H      44.369700000000002     49.458550000000002     48.074950000000001
