18

C      47.939399999999992     47.317599999999992     48.085149999999992
C      47.811799999999998     48.698700000000002     47.825249999999997
C      47.648699999999998     46.343899999999998     46.956850000000003
C      47.577800000000003     49.031599999999997     46.438950000000006
C      48.533999999999999     46.997599999999998     49.428750000000008
C      48.114200000000004     49.813099999999991     48.624150000000000
C      47.589700000000001     46.784199999999998     45.620149999999995
C      47.615700000000004     48.184399999999997     45.253050000000002
C      48.783900000000003     48.043399999999991     50.421149999999997
C      48.476399999999991     49.387799999999999     49.938450000000003
H      47.626400000000004     45.253100000000003     47.319350000000000
H      47.579599999999999     50.172699999999992     46.289249999999996
H      48.427000000000000     46.013900000000000     49.795850000000002
H      47.792099999999998     50.746899999999997     48.184049999999999
H      47.493400000000001     46.102199999999996     44.867850000000004
H      47.216099999999997     48.491599999999991     44.382249999999999
H      48.589800000000004     48.081000000000003     51.617750000000001
H      48.450799999999994     49.966099999999997     50.735849999999999
