18

C      47.888599999999990     47.965499999999999     48.557249999999996
C      48.186999999999998     47.622399999999999     47.060749999999999
C      46.529499999999999     48.208500000000001     48.898550000000000
C      47.114399999999996     47.967700000000008     46.249549999999999
C      48.754300000000001     47.716800000000006     49.751249999999999
C      49.607399999999998     47.514099999999999     46.672449999999998
C      45.442399999999992     48.259399999999999     47.994749999999996
C      45.741299999999995     48.472500000000011     46.612749999999991
C      50.092100000000002     47.636400000000009     49.229649999999992
C      50.429400000000001     47.436199999999999     47.780050000000003
H      46.415799999999997     48.246900000000011     50.082749999999990
H      47.560599999999994     48.167100000000005     45.221750000000000
H      48.574599999999990     47.986699999999999     50.778250000000000
H      49.940100000000001     47.346699999999998     45.609949999999998
H      44.487499999999997     48.782899999999998     48.177549999999997
H      44.771099999999997     48.337800000000001     46.131550000000004
H      51.047699999999992     47.656600000000012     49.655949999999990
H      51.512500000000003     47.217100000000002     47.927750000000003
