9

C      48.895349999999993     48.491649999999986     48.919299999999986
C      48.218950000000000     48.332349999999991     47.767299999999992
C      47.230250000000005     47.203949999999992     47.145799999999994
H      49.426150000000000     49.502150000000000     49.326200000000000
H      49.068350000000002     47.643850000000000     49.626400000000004
H      48.141749999999995     49.114149999999995     46.964699999999993
H      47.867150000000002     46.497850000000000     46.692499999999995
H      46.573850000000000     47.641849999999991     46.373599999999996
H      46.608550000000001     46.619450000000001     47.901499999999999
