18

C      47.379449999999991     47.837899999999998     48.546899999999994
C      48.464350000000010     48.686300000000003     48.042799999999993
C      46.431650000000005     47.657200000000003     47.421500000000002
C      48.535349999999994     49.218599999999995     46.674600000000005
C      47.512650000000008     47.047299999999993     49.827000000000005
C      49.582950000000011     48.841499999999996     48.890800000000006
C      46.585949999999997     48.052199999999999     46.008099999999992
C      47.587850000000003     49.056899999999999     45.704299999999996
C      48.676150000000007     47.136899999999997     50.522799999999997
C      49.691350000000000     48.218800000000002     50.238400000000006
H      45.405450000000002     47.269700000000000     47.217800000000004
H      49.436450000000008     49.764099999999999     46.458899999999993
H      46.902450000000002     46.236999999999995     50.077099999999994
H      50.406350000000003     49.597399999999993     48.669599999999996
H      45.988749999999996     47.686099999999996     45.049500000000002
H      47.710949999999997     49.350999999999999     44.753599999999999
H      48.805049999999994     46.235900000000001     51.246400000000001
H      50.594549999999998     48.459299999999999     50.883599999999994
