13

C      48.638524999999987     48.589149999999989     48.166649999999997
C      48.863125000000011     47.107849999999999     48.063749999999999
C      47.808525000000003     46.430549999999997     47.438150000000007
C      46.736525000000000     47.135850000000005     46.911050000000003
C      46.641345000000001     48.611450000000005     46.928150000000002
C      47.581405000000004     49.416050000000013     47.544150000000002
C      49.219825000000000     49.445450000000008     49.049550000000004
H      49.926024999999996     46.720849999999999     48.505450000000010
H      47.717224999999999     45.473550000000003     47.393150000000006
H      46.175975000000008     46.515250000000009     46.216250000000002
H      45.946775000000002     49.162750000000003     46.279049999999998
H      47.700424999999996     50.526449999999997     47.441749999999999
O      50.053224999999998     49.399850000000001     49.783749999999998
