18

C      47.946449999999992     48.778449999999992     48.296949999999988
C      48.252849999999995     47.366750000000003     48.078450000000004
C      46.578549999999993     49.055450000000000     48.923850000000002
C      47.609449999999995     46.336250000000000     48.949749999999995
C      48.786749999999998     49.884250000000002     47.851950000000002
C      49.433749999999989     47.095150000000011     47.258550000000000
C      45.757149999999996     48.031050000000000     49.460049999999995
C      46.321649999999998     46.570250000000009     49.550150000000002
C      49.708849999999998     49.480449999999998     46.820549999999997
C      50.279150000000001     48.144449999999999     46.652549999999991
H      46.218049999999998     49.904150000000008     48.794650000000004
H      47.938149999999993     45.181649999999998     48.954250000000002
H      48.586149999999989     50.818350000000002     48.258150000000001
H      49.452749999999995     46.021350000000005     47.199249999999992
H      44.778250000000000     48.523950000000006     49.838750000000005
H      45.792049999999996     45.683750000000011     49.940950000000001
H      50.614549999999994     50.127950000000006     46.374250000000004
H      51.221750000000000     48.190450000000006     46.059049999999999
