18

C      48.046049999999994     48.686099999999996     47.388749999999995
C      47.665250000000007     48.425100000000000     48.700449999999996
C      47.181249999999999     48.207300000000004     46.377749999999999
C      46.213250000000009     48.078999999999994     48.942450000000008
C      49.262750000000004     49.067200000000000     46.872850000000000
C      48.895750000000000     48.638999999999996     49.605050000000006
C      46.058450000000001     47.489000000000004     46.673049999999996
C      45.616350000000004     47.092600000000004     48.032049999999998
C      50.354450000000007     49.344300000000004     47.797950000000000
C      50.120049999999999     49.035899999999998     49.152850000000001
H      47.328949999999999     48.657700000000006     45.460949999999997
H      46.276750000000000     48.070499999999996     50.132649999999998
H      49.380050000000004     49.182599999999994     45.734749999999998
H      48.812649999999998     48.422100000000000     50.539050000000003
H      45.542750000000005     47.490300000000005     45.696050000000000
H      44.654850000000003     46.571200000000005     48.458350000000010
H      51.345149999999997     49.428799999999995     47.346249999999998
H      50.812950000000008     48.874899999999997     49.891150000000003
