6

C      48.238449999999993     47.403949999999988     48.239550000000001
C      48.112850000000002     48.563749999999999     47.646550000000005
H      48.566350000000000     46.948650000000001     49.173249999999996
H      47.433650000000000     48.769250000000000     46.826750000000004
H      48.509749999999997     49.396850000000001     48.110750000000003
H      47.887650000000001     46.603149999999999     47.519450000000006
