18

C      48.521699999999996     47.387700000000002     48.015349999999998
C      47.219700000000003     47.632500000000007     47.568249999999999
C      48.932499999999997     47.300700000000006     49.438750000000006
C      46.366100000000003     47.222500000000011     48.654850000000003
C      49.662900000000000     47.364699999999999     47.077450000000006
C      46.972799999999999     48.147300000000001     46.234950000000005
C      47.967400000000005     47.054700000000011     50.257950000000001
C      46.577599999999997     46.932600000000008     50.058550000000004
C      49.554600000000001     48.064900000000009     45.892749999999999
C      48.122000000000007     48.519800000000004     45.492450000000012
H      50.083599999999997     47.502500000000012     49.600350000000013
H      45.272900000000000     46.980500000000006     48.476350000000004
H      50.727100000000000     47.132000000000005     47.523250000000012
H      45.838500000000003     48.126700000000000     45.793250000000008
H      47.977200000000003     46.923400000000001     51.389749999999999
H      45.941000000000003     46.972300000000004     51.010050000000000
H      50.362400000000001     48.462100000000007     45.262150000000013
H      47.860999999999997     49.076599999999999     44.610250000000001
