5

C      47.684599999999989     48.203249999999990     47.915549999999996
H      48.903800000000004     48.383150000000001     48.037050000000008
H      47.311800000000005     47.193950000000001     48.268249999999995
H      47.096199999999996     48.806049999999999     47.139849999999996
H      47.296599999999998     48.796650000000000     48.860150000000004
