12

C      48.064499999999995     48.666249999999998     49.139444999999995
C      47.564200000000000     47.220450000000000     48.685214999999999
C      47.563200000000002     46.088250000000002     46.720524999999995
C      48.411300000000004     46.264449999999997     47.764364000000000
H      48.578000000000010     48.705449999999999     50.082875000000008
H      48.038400000000003     50.582449999999994     48.862195000000000
H      47.803500000000000     46.966549999999998     49.759385000000002
H      46.384799999999998     47.069050000000004     48.709094999999998
H      47.794000000000004     45.417550000000006     45.917124999999992
H      49.615200000000002     45.973749999999995     47.799724999999995
H      46.622199999999999     46.497950000000003     46.899525000000033
O      47.838799999999999     49.658050000000003     48.415599000000000
