18

C      48.648599999999995     48.439799999999991     48.505949999999999
C      47.705500000000001     47.586700000000000     47.599850000000011
C      48.405999999999999     49.807399999999994     49.001950000000001
C      46.387799999999999     48.092300000000002     47.545750000000005
C      49.938699999999997     47.859999999999992     48.895050000000005
C      48.247000000000000     46.282299999999999     47.260050000000000
C      46.997000000000000     50.283600000000000     48.763550000000002
C      46.032299999999999     49.523400000000002     47.957150000000006
C      50.168300000000002     46.410500000000006     48.640549999999998
C      49.374399999999994     45.575300000000006     47.868350000000000
H      49.246499999999997     50.550699999999999     49.476149999999997
H      45.694699999999997     47.589400000000005     47.058850000000000
H      50.758699999999990     48.241599999999998     49.399450000000009
H      47.381599999999999     45.992100000000001     46.523850000000003
H      47.120600000000003     51.422000000000004     49.003549999999997
H      45.007700000000000     49.834600000000002     47.644950000000001
H      50.992300000000000     45.861899999999999     49.244850000000007
H      49.752400000000002     44.577999999999996     47.458550000000010
