5

C      47.916049999999998     48.232799999999990     47.734599999999986
H      49.009550000000004     48.532100000000000     47.546399999999998
H      47.811449999999994     48.669200000000004     48.906900000000000
H      46.990449999999996     48.787300000000002     47.093100000000000
H      47.709550000000007     47.212699999999998     47.777399999999993
