19

C      47.847744999999989     48.529549999999986     48.643549999999991
C      47.234494999999995     48.525649999999999     47.235250000000008
C      47.454144999999997     49.502250000000004     49.637550000000005
C      46.497725000000003     49.618650000000002     46.671549999999996
C      48.929045000000002     47.524050000000003     48.781750000000002
C      48.090045000000003     47.465149999999994     46.550650000000005
C      46.365665000000007     50.340950000000007     49.069450000000003
C      45.854574999999997     50.373149999999995     47.753850000000000
C      49.168945000000008     47.007149999999996     47.346850000000003
C      50.298945000000003     46.117050000000006     46.707350000000005
H      50.142745000000005     45.227149999999995     47.415350000000004
H      47.665345000000002     49.589050000000000     50.542050000000003
H      46.281635000000009     49.681350000000009     45.539650000000009
H      49.303444999999996     47.328649999999996     49.541150000000016
H      48.105145000000007     47.240849999999995     45.457949999999997
H      45.851894999999999     50.765550000000005     49.810450000000003
H      44.942454999999995     50.772850000000005     47.696449999999999
H      51.057545000000005     46.604950000000002     47.181049999999999
H      50.680845000000005     45.669049999999999     45.507950000000008
