18

C      47.538100000000000     48.097049999999989     47.776449999999997
C      48.395700000000005     48.252350000000007     48.948349999999998
C      47.350700000000003     49.117549999999994     46.772250000000007
C      49.273899999999998     49.365049999999997     49.005249999999997
C      46.908000000000001     46.937349999999995     47.528050000000000
C      48.711399999999998     46.884649999999993     49.482949999999995
C      48.180199999999999     50.272050000000000     47.029249999999998
C      48.941600000000008     50.559349999999995     48.203449999999997
C      47.228899999999996     45.586849999999998     48.047950000000007
C      48.265000000000001     45.671450000000000     49.066150000000000
H      47.027100000000004     48.866549999999989     45.835950000000004
H      49.969499999999996     49.524850000000001     49.838950000000004
H      46.030500000000004     46.895349999999993     46.967949999999995
H      49.441900000000004     46.978049999999996     50.164049999999996
H      48.397700000000000     50.881549999999990     46.070150000000005
H      49.438800000000001     51.444350000000000     48.294350000000001
H      46.878600000000006     44.571050000000000     47.663150000000009
H      48.409800000000004     44.555650000000000     49.196850000000005
