42

C      45.672199999999989     48.173199999999994     47.868549999999992
C      46.143300000000011     46.729599999999998     47.919250000000005
C      50.333500000000001     48.725400000000000     45.573949999999996
C      46.613799999999998     48.905099999999997     46.817250000000001
C      47.453900000000004     46.292200000000001     47.459850000000003
C      48.895300000000006     49.014699999999998     45.408149999999999
C      49.930800000000005     46.663199999999996     46.825949999999999
C      47.882900000000006     48.530300000000004     46.515250000000002
C      48.411400000000000     47.150100000000002     46.707949999999997
C      46.302700000000002     48.630199999999995     49.218750000000000
C      46.734399999999994     47.996600000000001     50.386550000000000
C      46.013500000000008     46.688499999999998     50.474249999999998
C      45.645300000000006     46.295800000000000     49.147050000000000
C      46.456700000000012     50.392900000000004     46.659750000000003
C      47.474400000000003     50.973099999999995     48.204549999999998
C      47.277200000000008     49.751200000000004     49.034649999999999
C      50.601900000000001     45.241399999999999     47.378850000000000
C      48.873099999999994     46.227899999999998     45.572850000000003
C      45.247900000000001     45.503900000000002     47.625450000000001
C      49.652000000000001     44.485300000000002     48.103250000000003
C      44.837100000000007     49.015899999999995     49.156450000000007
H      50.993200000000002     49.417300000000004     44.938249999999996
H      48.542300000000012     49.766700000000007     44.687849999999997
H      47.063599999999994     48.449000000000005     51.312150000000003
H      45.448099999999997     50.578799999999994     46.641649999999998
H      46.659300000000002     50.760899999999999     45.655749999999998
H      47.328299999999999     52.139800000000001     48.554649999999995
H      48.538700000000006     50.843700000000005     48.092249999999993
H      48.036500000000004     49.231400000000001     49.677549999999997
H      51.605400000000003     45.352100000000000     47.655050000000003
H      50.727000000000004     44.295800000000000     46.367950000000000
H      49.842799999999997     46.137899999999995     44.759650000000001
H      47.996200000000002     45.723599999999998     44.977450000000005
H      44.205100000000002     45.354800000000004     47.771450000000002
H      45.541499999999999     44.513600000000004     47.825850000000003
H      44.153599999999997     48.166599999999995     49.673249999999996
H      44.725800000000007     50.056500000000000     49.212249999999997
H      45.450100000000006     46.145600000000002     51.214849999999998
H      51.846400000000003     48.373500000000000     46.747450000000001
H      47.714100000000002     45.261299999999999     47.057450000000003
N      50.873699999999999     47.793399999999998     46.556849999999997
O      48.786000000000001     43.860199999999999     48.571550000000002
