35

C      44.929199999999994     46.138784999999991     46.465769999999992
C      47.587999999999994     49.867854999999999     48.763130000000004
C      46.519299999999987     47.444434999999999     48.293250000000000
C      49.039699999999996     49.656684999999996     48.716790000000003
C      46.638099999999994     48.880465000000001     48.675340000000006
C      45.442599999999999     46.593744999999998     47.698700000000002
C      45.983400000000003     46.502884999999999     49.133170000000007
C      48.109700000000004     46.641184999999993     47.988600000000005
C      48.845500000000001     47.618245000000002     47.112319999999997
C      49.607500000000002     48.769305000000003     47.681570000000008
C      47.731899999999996     47.928384999999999     46.107510000000005
C      45.786799999999999     45.681395000000002     50.239570000000001
C      50.803699999999992     47.982345000000009     49.926370000000006
C      46.275999999999996     48.790315000000007     45.805310000000006
C      49.911400000000000     46.581805000000003     46.441929999999999
C      50.360599999999991     49.209054999999999     48.932370000000006
H      47.512500000000003     50.928325000000001     49.159270000000006
H      45.682400000000001     49.313414999999992     48.594920000000002
H      48.087000000000003     45.611615000000000     47.589160000000007
H      48.689099999999996     46.726214999999996     48.937970000000007
H      47.882999999999996     47.181485000000009     45.651290000000003
H      48.418400000000005     48.664005000000003     45.941100000000006
H      46.087400000000002     46.005205000000004     51.265569999999997
H      44.888300000000001     45.071674999999999     50.099270000000004
H      51.507800000000003     47.288984999999997     49.513869999999997
H      50.902299999999997     48.259895000000000     50.952370000000002
H      49.950599999999994     47.154535000000010     50.049670000000006
H      46.497399999999999     49.766194999999996     46.008060000000000
H      45.287899999999993     48.802895000000007     46.283240000000006
H      46.174599999999998     48.596415000000007     44.734430000000003
H      50.887400000000000     46.307924999999997     47.110600000000005
H      49.814400000000006     45.533295000000003     46.251410000000007
H      50.318600000000004     47.155515000000008     45.629390000000001
H      51.311199999999999     49.734355000000001     48.875870000000006
O      44.492199999999997     45.777794999999998     45.473520000000008
