18

C      47.496149999999993     48.557399999999987     48.709699999999991
C      48.313049999999990     47.696600000000004     47.655200000000001
C      48.030150000000006     48.305800000000005     50.005699999999990
C      47.664549999999991     47.858699999999999     46.358199999999997
C      46.706750000000000     49.636899999999997     48.252200000000002
C      49.107450000000000     46.557000000000002     47.989599999999996
C      49.025549999999996     47.325099999999992     50.314700000000002
C      49.436549999999997     46.301599999999993     49.333600000000004
C      46.364950000000000     49.680999999999997     46.827700000000000
C      46.478650000000002     48.643699999999995     45.893900000000002
H      47.641449999999992     49.080600000000004     50.705100000000002
H      48.062649999999991     47.200400000000002     45.604099999999995
H      46.395550000000000     50.424800000000005     48.930000000000000
H      49.271049999999988     46.070499999999996     47.074900000000000
H      49.609549999999999     47.078999999999994     51.049700000000001
H      50.157049999999998     45.575199999999995     49.617300000000000
H      45.842950000000002     50.399599999999992     46.118400000000001
H      46.158349999999999     48.775899999999993     44.950299999999999
