17

C      47.166299999999993     46.026499999999984     48.468150000000001
C      47.845599999999997     47.228099999999991     48.866750000000010
C      46.919899999999998     45.709099999999999     46.986649999999997
C      47.631200000000000     46.811199999999992     47.372150000000005
C      50.867300000000007     50.753899999999994     49.914749999999998
C      49.788799999999988     49.967099999999995     49.872150000000005
C      48.703699999999991     49.284299999999995     49.272450000000006
C      48.339300000000001     48.080999999999996     49.963549999999998
C      46.082200000000000     44.957899999999988     45.836849999999998
C      50.945799999999998     49.379399999999997     50.376350000000002
H      44.856400000000001     45.271999999999998     45.688950000000006
H      48.477899999999998     49.348099999999995     48.201050000000009
H      48.486499999999999     47.812099999999994     50.882950000000008
H      46.615800000000000     44.428699999999999     45.037149999999997
H      45.762799999999999     44.151299999999999     46.346550000000008
H      51.008500000000005     51.848700000000001     50.026949999999999
H      51.143599999999999     48.504399999999997     50.962850000000003
