130

C      51.345029999999994     46.209549999999993     50.451900000000002
C      51.194030000000005     46.460049999999988     51.832699999999996
C      55.882829999999998     44.877949999999991     51.917100000000005
C      55.787330000000004     45.688049999999997     53.078299999999992
C      52.681930000000001     45.799149999999997     50.133899999999997
C      52.153329999999997     46.746649999999988     52.795699999999989
C      54.997030000000002     45.092149999999997     50.766300000000001
C      54.504330000000003     46.409549999999989     53.408000000000001
C      53.740929999999999     45.782750000000000     51.143700000000010
C      53.598630000000007     46.382049999999992     52.428800000000003
C      50.110130000000005     46.319849999999995     49.636000000000010
C      47.730330000000002     47.292549999999991     50.539200000000008
C      49.160630000000005     46.745649999999998     50.734800000000000
C      49.814630000000001     46.745449999999991     52.111699999999999
C      46.966330000000006     45.351349999999996     48.954000000000008
C      45.375040000000006     47.637349999999991     46.208500000000001
C      44.573080000000004     47.460449999999987     47.484000000000009
C      41.039000000000001     54.684849999999997     48.463700000000003
C      45.118720000000003     48.804649999999988     45.365899999999996
C      41.616670000000006     55.633849999999995     47.422899999999998
C      43.590650000000004     48.704549999999990     47.792800000000000
C      43.312840000000001     55.103549999999998     45.464600000000004
C      43.762470000000000     53.906649999999999     44.559600000000003
C      41.520010000000006     52.281149999999990     49.481800000000007
C      42.230409999999999     51.015449999999994     48.846800000000002
C      44.279029999999999     51.323849999999993     45.052599999999998
C      42.453030000000005     54.707849999999993     46.524200000000008
C      41.655610000000003     53.407949999999992     48.591600000000000
C      44.465359999999997     50.022349999999996     45.788300000000007
C      43.735450000000000     52.574649999999991     45.467600000000004
C      43.641550000000002     49.856449999999988     47.094800000000006
C      43.079709999999999     50.945349999999983     47.685900000000004
C      42.283740000000002     53.344649999999994     47.126599999999996
C      43.190810000000006     52.216650000000001     46.859099999999998
C      43.089460000000003     48.663150000000002     49.210800000000006
C      42.205390000000001     49.800049999999992     49.645899999999997
C      46.420530000000007     46.809449999999991     45.461600000000004
C      47.067730000000005     45.284250000000000     45.745900000000006
C      46.925330000000002     46.538349999999987     49.776499999999999
C      44.695820000000005     46.214250000000000     48.374200000000002
C      44.186350000000004     46.436649999999993     49.695099999999996
C      45.763100000000001     48.642349999999993     43.985799999999998
C      46.386930000000000     47.123749999999994     43.993200000000002
C      45.840370000000000     45.590749999999993     44.834100000000007
C      41.813849999999995     57.079949999999997     47.237099999999998
C      43.187050000000006     57.388649999999991     46.623800000000003
C      43.183060000000005     56.655749999999991     45.153700000000001
C      44.844010000000004     51.404549999999993     43.642300000000006
C      41.156370000000003     58.188649999999988     47.839700000000008
C      39.719500000000004     58.164149999999985     48.245199999999997
C      44.858470000000004     54.835549999999991     45.317200000000000
C      44.654420000000002     44.931049999999999     44.036400000000000
C      45.678879999999999     45.035449999999997     48.363900000000001
C      48.835929999999998     41.725649999999995     46.236600000000010
C      48.091330000000006     42.931750000000001     45.851900000000001
C      46.173230000000004     39.696149999999996     44.731300000000005
C      49.220829999999999     40.238849999999999     46.279800000000009
C      47.776830000000004     41.799450000000000     45.144900000000007
C      47.296630000000000     38.792649999999995     44.695700000000002
C      46.298030000000004     41.882050000000000     43.236400000000003
C      48.431329999999996     39.347549999999998     45.406700000000001
C      46.437630000000006     41.100049999999996     44.593299999999999
C      47.480229999999999     42.693849999999998     42.338999999999999
C      45.332749999999997     42.166550000000001     44.561500000000009
C      46.758130000000001     37.800049999999999     43.560400000000001
C      49.792330000000000     39.271749999999997     45.349199999999996
C      43.328859999999999     45.785449999999997     43.880499999999998
C      43.817569999999996     41.802249999999994     44.384200000000007
C      40.852409999999999     43.984549999999999     43.497600000000006
C      40.641870000000004     42.796749999999996     42.541600000000003
C      41.171489999999999     45.368749999999999     43.167699999999996
H      57.094529999999999     44.358950000000000     51.943600000000004
H      56.431530000000002     45.620249999999992     53.918700000000001
H      52.925630000000005     45.491849999999992     49.204499999999996
H      52.044530000000002     46.954249999999995     53.774100000000004
H      55.201230000000002     44.699549999999995     49.817900000000009
H      54.360630000000008     46.919349999999987     54.334000000000003
H      49.822030000000005     45.938049999999997     48.599600000000009
H      49.352030000000006     47.083149999999989     53.077700000000007
H      47.517630000000004     48.352749999999993     50.829699999999995
H      47.901730000000001     44.761550000000000     48.843900000000005
H      40.389630000000004     55.198549999999997     49.237499999999997
H      43.293920000000000     53.919349999999994     43.453900000000004
H      42.166690000000003     49.902450000000002     50.655900000000003
H      44.234230000000004     45.638249999999992     50.445300000000003
H      46.276830000000004     49.428650000000005     43.591900000000010
H      44.785930000000000     48.668049999999994     43.368700000000004
H      46.586630000000007     46.652949999999990     42.866900000000001
H      44.392240000000001     44.147050000000000     44.549300000000002
H      43.159350000000003     58.567349999999983     46.483900000000006
H      42.626849999999997     57.136650000000003     44.342399999999998
H      43.863630000000001     57.225049999999996     47.589600000000004
H      44.120760000000004     56.933149999999991     45.134600000000006
H      42.906070000000000     47.538049999999998     51.078500000000005
H      41.199339999999999     59.147750000000002     47.316100000000006
H      41.382950000000001     58.108049999999984     49.120300000000000
H      39.234909999999999     58.707749999999997     49.262600000000006
H      40.063470000000002     57.263750000000002     48.742599999999996
H      38.905470000000001     58.107949999999995     47.482600000000005
H      45.116890000000005     54.311049999999994     46.276800000000009
H      45.432620000000000     55.623449999999991     44.897599999999997
H      45.029670000000003     44.763849999999998     43.014400000000009
H      45.922830000000005     44.098949999999995     47.965800000000002
H      45.990430000000003     46.917249999999989     49.404899999999998
H      45.154400000000003     39.365749999999998     44.209699999999998
H      47.805929999999996     41.785849999999996     41.750200000000007
H      48.388530000000003     43.214250000000000     43.073700000000002
H      47.090529999999994     43.733950000000000     42.346199999999996
H      45.483979999999995     42.889949999999992     45.315700000000007
H      45.769100000000002     41.309449999999998     42.485700000000008
H      47.220229999999994     36.852249999999998     43.437700000000007
H      46.898029999999999     38.303049999999999     42.407200000000003
H      45.935330000000000     37.195450000000001     43.960400000000007
H      50.635129999999997     39.121049999999997     44.612200000000001
H      43.284029999999994     40.517949999999992     45.765299999999996
H      41.588010000000004     51.661749999999998     51.343900000000005
H      43.314530000000005     41.811450000000001     43.390900000000002
H      40.253229999999995     43.299450000000000     41.665999999999997
H      39.841150000000006     44.105249999999998     44.083600000000004
H      41.593210000000006     42.294049999999991     42.878700000000009
H      39.801129999999993     42.378849999999993     43.221400000000003
H      40.465260000000001     45.934849999999990     43.608100000000007
H      40.948380000000000     45.819449999999996     42.151200000000003
H      41.621469999999995     43.815449999999998     44.469600000000000
N      43.482170000000004     47.620149999999995     50.041100000000000
O      45.131410000000002     51.765950000000004     42.646500000000003
O      48.045230000000004     44.599449999999997     45.671700000000001
O      41.029280000000000     52.370850000000004     50.651199999999996
O      42.424920000000000     46.513449999999999     43.677400000000006
O      43.010140000000000     41.393349999999998     45.325800000000001
