18

C      48.115854999999989     48.096699999999998     47.528949999999995
C      47.442614999999996     47.589700000000001     48.718650000000004
C      48.655774999999991     49.487500000000004     47.610650000000000
C      46.758474999999997     48.539499999999997     49.718750000000007
C      48.861544999999992     47.325499999999998     46.538350000000001
C      46.894525000000002     46.146200000000000     48.654450000000004
C      47.987544999999997     50.404299999999999     48.345250000000000
C      47.009174999999999     49.922500000000007     49.363650000000000
C      48.315635000000000     45.963799999999999     46.394650000000006
C      47.290514999999999     45.605300000000007     47.403350000000003
H      49.330365000000000     49.706200000000003     46.755950000000006
H      46.131045000000000     48.388100000000001     50.569049999999997
H      49.868955000000000     47.728900000000003     46.151150000000001
H      46.198585000000001     46.012500000000010     49.420450000000010
H      48.358424999999997     51.593100000000000     48.273550000000007
H      46.547035000000001     50.788699999999999     49.968550000000000
H      48.532674999999998     45.640599999999999     45.430950000000003
H      46.751745000000000     44.406900000000000     46.961150000000004
