143

C      56.132849999999998     41.152699999999996     43.411399999999993
C      53.942590000000017     42.299199999999999     43.554299999999991
C      57.046070000000000     44.171199999999999     47.205299999999987
C      55.439940000000007     42.460300000000004     43.914400000000001
C      58.333859999999994     41.732799999999997     45.136800000000001
C      56.030460000000005     44.021100000000004     46.337699999999998
C      58.122989999999994     43.364300000000000     46.953100000000006
C      56.394239999999996     43.229799999999997     45.165599999999998
C      57.548069999999996     42.735799999999998     45.708500000000001
C      54.111290000000011     40.107399999999998     42.259799999999998
C      53.065790000000007     41.184399999999997     42.957099999999997
C      52.949189999999994     42.686300000000003     42.742000000000004
C      57.392110000000002     41.041200000000003     44.269300000000001
C      55.467300000000002     40.045199999999994     42.647599999999997
C      51.996490000000001     41.740399999999994     42.223200000000006
C      54.488991000000006     44.309100000000001     46.110900000000001
C      53.291390000000014     39.532899999999998     41.362700000000004
C      50.084789999999977     45.983499999999992     50.100700000000003
C      50.167889999999986     44.465299999999999     49.916399999999989
C      53.468389999999985     45.375799999999998     53.778700000000001
C      53.301689999999994     43.876099999999994     53.431899999999999
C      50.743190000000006     46.754499999999993     51.195999999999998
C      50.610290000000006     43.658500000000004     51.001699999999992
C      52.424190000000003     46.258299999999991     53.089100000000002
C      52.335990000000017     43.382400000000004     52.586699999999993
C      51.393090000000008     45.779600000000002     52.155799999999999
C      51.379190000000015     44.378100000000003     52.018799999999992
C      49.508290000000002     46.821799999999996     49.114500000000007
C      48.743490000000001     46.516700000000000     48.055699999999995
C      48.523789999999998     43.613500000000002     48.070099999999996
C      54.605619000000004     45.902100000000004     54.525400000000005
C      55.777299999999997     45.290400000000005     54.188599999999994
C      55.737300000000005     43.818500000000000     54.301500000000004
C      54.491510000000005     43.210700000000003     54.077399999999990
C      49.495390000000000     48.441099999999992     49.399600000000007
C      48.506790000000009     48.670699999999997     48.450900000000004
C      48.174689999999984     50.164800000000000     48.766599999999997
C      48.253390000000017     47.789100000000005     47.430999999999997
C      50.353089999999995     49.129899999999992     50.416600000000003
C      50.887390000000018     48.204099999999997     51.269099999999995
C      51.886490000000016     48.659099999999995     52.392099999999999
C      52.505990000000011     47.627499999999998     53.252600000000001
C      47.474590000000020     50.542999999999992     47.737399999999994
C      48.168089999999999     42.497500000000002     47.294099999999993
C      49.102189999999993     43.539699999999996     49.358800000000002
C      47.596190000000028     41.826799999999992     45.284500000000001
C      44.422790000000006     48.287499999999994     48.971000000000004
C      49.789989999999996     41.008899999999997     41.745199999999997
C      41.210689999999978     52.408500000000004     48.821700000000007
C      42.161089999999980     51.461600000000004     49.447400000000002
C      40.585390000000004     52.290300000000002     47.463300000000004
C      46.422189999999979     48.900199999999998     44.551599999999993
C      43.127589999999984     48.638999999999996     44.180700000000002
C      42.805390000000010     50.252300000000005     48.861999999999988
C      44.445289999999986     47.992099999999994     47.534099999999988
C      42.435390000000005     50.116799999999998     44.860799999999998
C      46.211490000000019     49.990700000000004     45.400199999999998
C      42.197690000000001     50.736800000000002     46.183599999999998
C      45.146490000000007     49.284400000000005     44.786400000000000
C      42.716789999999989     50.001000000000005     47.327799999999996
C      43.635789999999993     49.001000000000005     46.652299999999997
C      43.760090000000005     49.379599999999996     45.228600000000000
C      43.864990000000013     49.507400000000004     49.593400000000003
C      45.002490000000002     47.094099999999997     48.463700000000003
C      40.780990000000017     53.405999999999992     49.805999999999990
C      41.602690000000010     53.249799999999993     51.168400000000005
C      42.260390000000015     52.161900000000003     51.838300000000004
C      42.945590000000017     51.308399999999992     50.771899999999995
C      44.167589999999997     50.512400000000000     50.704800000000006
C      45.472090000000030     50.065600000000003     51.344899999999996
C      38.431390000000015     53.042699999999996     46.190799999999989
C      39.440989999999999     53.326300000000003     47.334299999999999
C      39.896189999999997     54.629000000000005     49.495000000000005
C      41.271090000000001     51.828900000000004     46.244199999999992
C      38.944190000000006     53.637900000000002     48.687599999999996
C      37.435190000000006     54.531899999999993     48.702999999999996
C      39.303490000000018     56.002099999999999     50.620399999999997
C      45.658490000000015     46.497399999999999     49.542899999999996
C      42.973189999999995     51.950099999999992     53.194900000000004
H      46.549390000000002     43.032200000000003     41.775000000000006
H      57.001750000000001     44.591899999999995     48.286199999999994
H      55.911870000000008     43.127499999999998     42.970900000000000
H      59.216859999999997     41.265900000000002     45.393399999999993
H      59.263509999999997     43.115200000000002     47.166600000000003
H      57.629010000000001     39.954899999999995     44.137699999999995
H      55.893910000000005     39.280299999999997     41.987800000000000
H      53.831290000000010     43.581199999999995     45.745899999999992
H      54.193490000000011     44.785299999999992     47.052400000000006
H      54.476987000000008     44.900099999999995     45.022099999999995
H      46.213090000000008     41.396100000000004     42.526200000000003
H      47.839390000000023     41.123999999999995     41.244199999999999
H      46.129090000000012     41.492699999999999     40.418500000000002
H      45.085189999999997     43.385599999999997     43.434100000000001
H      42.816189999999985     47.059299999999993     45.438699999999997
H      55.302141000000006     47.411699999999996     55.581499999999998
H      52.353389999999997     42.451499999999996     52.442000000000007
H      48.950489999999988     42.626300000000001     50.096999999999994
H      56.471450000000004     45.728200000000001     53.452900000000000
H      56.679169999999999     43.242599999999996     54.324600000000004
H      54.532627000000005     42.144400000000005     54.299499999999988
H      48.263490000000012     50.705500000000001     49.680899999999994
H      47.694089999999996     48.024400000000000     46.463999999999999
H      50.225090000000009     50.145200000000003     50.590100000000007
H      52.367790000000007     49.626300000000001     52.302000000000007
H      53.343690000000024     48.079999999999998     53.960799999999999
H      47.412790000000015     44.899699999999996     47.041499999999999
H      50.803289999999997     42.655000000000001     50.679800000000000
H      44.518090000000015     42.994500000000002     41.712900000000005
H      46.679790000000004     47.810699999999997     44.309100000000001
H      43.778389999999995     48.444599999999994     43.335799999999992
H      42.368090000000009     50.809100000000001     44.064399999999999
H      41.264290000000010     54.136700000000005     51.601599999999998
H      38.398390000000006     53.728700000000003     45.328800000000001
H      38.699089999999991     52.058199999999999     45.880099999999992
H      40.274289999999993     55.542100000000005     48.941400000000002
H      40.783690000000021     52.310099999999991     45.502800000000001
H      37.475090000000009     53.118399999999994     46.658100000000005
H      39.027490000000000     52.591499999999996     49.069599999999994
H      40.066590000000005     54.253500000000003     46.906399999999998
H      37.888490000000004     55.533999999999992     48.380699999999997
H      36.736490000000003     53.931500000000000     47.981999999999999
H      37.390689999999999     54.253500000000003     49.893900000000002
H      39.584390000000006     55.122199999999992     51.242999999999988
H      39.825290000000010     57.152299999999997     50.659499999999994
H      38.123490000000004     55.907600000000002     51.075099999999999
H      42.514490000000009     46.239199999999997     43.845799999999990
H      45.646589999999982     47.069099999999992     50.342500000000001
H      45.453390000000006     45.323099999999997     49.662999999999997
H      42.291390000000021     51.441400000000002     53.960999999999999
H      43.978890000000021     51.716499999999996     53.176500000000004
N      46.566690000000001     41.679800000000000     41.322500000000005
N      48.271789999999989     45.037999999999997     47.536500000000004
N      42.445190000000011     47.292999999999992     44.296599999999991
O      50.489790000000013     41.809200000000004     42.339799999999997
O      45.336890000000018     43.799399999999991     42.050600000000003
O      52.435690000000001     38.847700000000003     40.996800000000000
O      47.053490000000004     50.784400000000005     46.638800000000003
O      47.700690000000002     41.453000000000003     46.797600000000003
O      54.517878000000003     46.768599999999992     55.453800000000001
O      47.889490000000002     42.123199999999997     44.234899999999989
O      48.944789999999990     40.214500000000001     41.423699999999997
O      46.387790000000010     50.217200000000005     51.958700000000000
S      45.943089999999998     43.403400000000005     45.185900000000004
