46

C      48.669699999999992     47.719299999999997     48.445849999999993
C      48.465899999999998     46.441300000000012     47.589649999999999
C      50.450200000000002     49.685000000000002     45.007750000000009
C      49.333300000000001     48.464000000000013     47.486349999999995
C      49.255599999999994     46.329900000000009     46.345350000000003
C      50.523800000000001     50.091400000000007     46.336850000000005
C      49.876399999999997     48.485600000000005     44.859050000000003
C      50.357100000000010     49.538600000000002     47.711450000000006
C      49.618400000000001     47.760700000000000     46.100050000000003
C      48.755099999999999     47.620000000000005     49.878450000000008
C      47.304200000000002     46.426400000000001     51.330249999999999
C      48.035100000000000     46.201900000000009     50.126049999999999
C      47.892099999999999     45.679900000000004     48.720949999999995
C      48.773999999999994     48.933300000000003     50.621649999999995
C      48.168399999999998     48.923800000000000     51.773150000000008
C      47.242500000000000     47.835700000000003     51.872149999999998
C      46.055700000000002     46.983800000000002     52.364049999999999
C      50.704900000000002     50.440100000000001     48.959049999999998
C      49.444899999999997     50.047900000000013     50.049450000000000
C      44.604799999999997     46.903700000000001     52.086450000000006
C      51.511099999999999     50.256400000000014     44.057549999999999
C      51.371800000000000     50.592000000000013     42.337750000000007
C      47.853999999999999     45.105700000000013     51.532750000000000
C      49.409300000000009     50.682800000000000     45.264850000000003
C      45.947699999999998     46.361800000000002     53.838950000000004
H      49.466799999999999     45.486300000000000     45.735450000000007
H      49.842700000000001     48.060300000000012     43.972950000000004
H      47.384599999999999     44.742600000000010     48.632650000000005
H      47.879700000000000     49.812200000000004     52.435049999999997
H      51.656399999999998     50.247700000000009     49.358849999999997
H      50.592700000000001     51.518600000000006     48.632449999999999
H      49.480600000000003     50.594700000000003     50.984850000000002
H      48.864800000000010     50.110500000000002     49.119149999999998
H      52.425300000000000     49.541700000000006     43.935650000000003
H      51.912599999999991     51.346400000000003     44.358849999999997
H      50.709800000000001     51.349600000000009     42.481550000000006
H      52.173699999999997     51.397300000000001     42.193450000000006
H      51.342399999999991     49.945500000000010     41.432449999999996
H      48.539900000000003     44.223900000000000     51.007349999999995
H      47.104199999999999     44.273500000000013     51.927950000000003
H      48.536200000000001     50.065100000000001     45.408149999999999
H      49.666200000000011     51.776100000000000     44.639450000000004
H      46.454700000000003     45.281400000000005     53.946249999999999
H      46.679600000000001     47.054000000000002     54.567550000000004
H      44.731000000000002     46.061600000000013     54.085950000000004
O      43.574700000000000     47.361700000000013     52.259650000000001
