18

C      48.331149999999994     48.375899999999987     47.414299999999990
C      47.772849999999998     48.204899999999995     48.774900000000002
C      49.750350000000005     48.494500000000002     47.296599999999998
C      48.748550000000002     48.025899999999993     49.820900000000009
C      47.632849999999998     48.184899999999999     46.270000000000003
C      46.196550000000002     47.954099999999997     48.741000000000000
C      50.589949999999995     48.501400000000004     48.337999999999994
C      50.162950000000002     48.289299999999997     49.770099999999999
C      46.245550000000001     47.853899999999996     46.377899999999997
C      45.516950000000001     47.629999999999995     47.662499999999994
H      49.888950000000001     48.730199999999996     46.377600000000001
H      48.675549999999994     47.430099999999996     50.795200000000001
H      47.993650000000002     48.255299999999991     45.204799999999999
H      45.588549999999998     47.786199999999994     49.766099999999994
H      51.632449999999999     48.739000000000004     48.094300000000004
H      50.596750000000007     48.041199999999989     50.561399999999999
H      45.703749999999999     47.260999999999996     45.357300000000002
H      44.367550000000001     47.430499999999995     47.713000000000001
