75

C      48.410699999999991     46.235964999999993     50.899549999999991
C      47.920099999999998     45.712424999999996     48.490150000000000
C      47.639699999999998     48.769125000000003     53.745249999999999
C      47.527300000000004     47.216485000000006     51.597650000000002
C      46.003300000000003     44.974714000000006     52.190749999999994
C      47.103500000000004     45.901775000000001     51.372149999999991
C      48.823599999999992     48.144635000000008     54.293949999999995
C      47.866199999999999     47.644585000000006     53.029449999999997
C      48.551399999999994     46.938884999999999     48.302349999999990
C      47.016799999999996     44.696725000000001     48.279749999999993
C      46.154400000000003     43.573985000000008     47.364449999999991
C      48.884200000000000     45.999264999999994     49.439750000000004
C      49.024999999999999     48.083925000000008     47.596549999999993
C      46.105100000000000     45.092085999999995     47.320149999999998
C      45.836499999999994     42.938785000000010     45.740049999999997
C      45.138799999999996     43.988485000000026     44.683849999999993
C      46.133099999999992     44.313330399999998     46.087149999999994
C      46.044599999999996     47.275244999999998     51.106649999999988
C      47.584700000000005     50.362975000000006     53.462049999999991
C      50.203399999999995     47.743454999999997     54.119549999999990
C      45.457100000000004     43.954585000000009     51.188350000000000
C      48.165500000000002     48.519665000000003     55.504949999999994
C      44.676600000000001     44.299659599999998     49.894649999999999
C      50.594799999999999     46.025864999999996     53.882649999999998
C      51.491099999999996     46.102244999999996     55.890249999999995
C      50.386000000000003     45.471535000000003     55.194349999999986
C      51.304300000000005     44.568134999999998     56.172150000000002
C      48.451400000000000     50.348595000000003     44.672049999999999
C      48.661200000000001     50.961295000000007     43.385449999999992
C      48.602200000000003     48.853185000000011     45.057749999999999
C      49.222000000000001     51.199224999999998     41.315749999999994
C      49.655999999999999     51.093564999999998     39.711349999999996
C      48.970999999999997     52.104084999999998     40.268050000000002
C      48.611200000000004     47.990854999999996     46.257249999999999
C      48.006599999999999     51.366614999999996     45.479349999999997
C      48.251100000000001     52.702305000000010     44.906549999999996
C      48.558799999999998     52.492495000000005     43.552349999999990
C      47.941200000000002     47.545725000000004     45.161249999999995
C      49.266399999999997     50.160724999999999     42.350749999999991
H      49.973999999999997     48.662975000000003     47.766049999999993
H      45.407800000000002     41.901785000000004     45.607550000000003
H      45.932300000000005     47.378805000000000     50.038849999999996
H      46.961300000000001     50.820705000000004     52.664050000000003
H      46.874699999999997     50.187215000000009     54.430949999999996
H      48.121699999999997     51.202614999999994     53.999449999999996
H      50.719599999999993     47.638005000000007     55.097549999999998
H      50.764099999999992     48.364315000000005     53.279150000000001
H      46.410400000000003     43.439184999999995     50.830649999999991
H      44.623200000000004     43.169384999999991     51.784849999999992
H      48.273099999999992     49.322525000000013     56.273349999999994
H      45.797699999999999     46.661945000000003     48.226349999999996
H      47.764999999999993     47.558475000000001     55.989949999999993
H      44.882200000000005     43.402385000000010     49.076650000000001
H      43.598300000000002     44.160984999999997     50.037149999999997
H      44.830599999999997     45.407814999999999     49.599649999999997
H      49.839599999999997     45.630264999999994     53.123049999999992
H      51.540399999999998     45.853054999999998     53.429450000000003
H      45.538199999999996     47.537485000000004     51.947649999999996
H      49.333700000000000     45.697985000000003     55.395449999999997
H      51.171799999999998     44.453399000000005     57.291049999999998
H      52.184800000000003     43.946385000000006     55.811849999999993
H      47.495399999999997     51.176275000000004     46.443049999999999
H      47.879600000000003     53.758165000000005     45.295349999999999
H      48.762499999999996     53.243795000000006     42.782349999999994
H      46.837100000000000     47.322265000000002     44.937049999999999
H      49.089999999999996     49.121255000000005     42.242449999999991
H      48.528699999999994     54.098214999999996     39.332549999999998
H      49.950700000000005     53.924465000000012     40.537250000000000
H      44.410400000000003     46.435015000000007     46.568150000000003
N      45.021200000000000     46.128884999999997     47.458649999999992
N      49.133900000000004     53.502665000000007     39.919049999999999
O      45.606699999999996     45.561035000000004     53.223349999999996
O      44.452400000000004     44.367418000000001     43.895449999999997
O      52.401699999999998     46.899685000000005     55.770749999999992
O      49.817199999999993     50.370915000000011     38.708950000000002
