9

C      47.575350000000000     47.898549999999993     48.345149999999997
C      48.470150000000004     48.922950000000000     47.567750000000004
C      48.589650000000006     47.286349999999999     47.540050000000008
H      47.829149999999998     47.764150000000001     49.389550000000000
H      46.680450000000008     47.513949999999994     48.084850000000003
H      47.916350000000008     49.129850000000005     46.610450000000000
H      48.347250000000003     49.396850000000001     48.565049999999999
H      48.289950000000005     46.603149999999999     46.640650000000008
H      49.319549999999992     46.776249999999997     48.088950000000011
