18

C      47.572552999999992     48.418099999999995     48.553449999999998
C      48.673352999999992     47.970900000000000     47.669449999999998
C      46.416652999999997     48.536799999999999     47.937650000000005
C      48.596352999999993     48.427500000000002     46.235849999999999
C      47.654252999999997     48.300899999999999     49.933850000000007
C      49.884353000000004     47.336100000000002     48.263249999999999
C      46.307153000000000     48.850900000000003     46.474050000000005
C      47.317453000000000     48.785299999999999     45.531350000000003
C      48.652653000000001     47.690700000000000     50.636749999999992
C      49.730153000000001     47.213799999999999     49.718149999999994
H      45.624453000000003     48.590700000000005     48.528350000000003
H      49.284652999999992     48.435099999999998     45.326650000000001
H      46.808453000000000     48.163800000000002     50.617449999999991
H      50.616447000000008     46.887599999999999     47.726450000000000
H      45.383552999999992     49.181699999999999     45.927750000000003
H      47.070252999999994     49.125700000000002     44.377949999999998
H      48.561553000000004     47.112700000000004     51.622050000000002
H      50.575716000000007     46.818300000000001     50.184150000000002
