34

C      47.739849999999990     48.808149999999998     50.031619999999982
C      47.013350000000003     47.601949999999995     50.421520000000001
C      46.369950000000003     48.605350000000008     49.690419999999989
C      49.289650000000009     48.864150000000002     50.464519999999993
C      50.475449999999995     44.212250000000004     50.294419999999988
C      51.387850000000000     44.331150000000001     49.051620000000000
C      51.470550000000003     45.617849999999997     48.515319999999988
C      51.041049999999998     46.973450000000007     48.870219999999989
C      50.302950000000010     46.547649999999997     50.114519999999999
C      50.006050000000002     45.390450000000008     50.948233000000002
C      50.412250000000014     47.874249999999996     49.916719999999998
C      47.124849999999995     50.499350000000000     47.933920000000001
C      46.252650000000003     49.828849999999996     46.906019999999998
C      47.064850000000007     49.853950000000005     49.144619999999989
C      45.278850000000006     48.571750000000002     47.292919999999995
C      47.960949999999997     51.635349999999995     47.795620000000000
C      46.326149999999998     50.393250000000002     45.619219999999999
C      45.335250000000002     47.426750000000006     47.110320000000002
C      45.171050000000008     48.141849999999998     48.731119999999990
C      48.171650000000000     51.791050000000006     46.398719999999997
C      47.460049999999995     51.283449999999995     45.255020000000002
H      47.648350000000008     46.788050000000005     50.165319999999994
H      49.384750000000011     49.243150000000007     51.748880000000000
H      50.164050000000003     43.281050000000000     50.710819999999998
H      51.658550000000005     43.355350000000008     48.472020000000001
H      51.804450000000003     45.558450000000001     47.539819999999992
H      49.003150000000005     45.048049999999996     51.729112000000001
H      49.626050000000006     49.910249999999998     50.390519999999995
H      46.258949999999999     46.752950000000006     46.711119999999994
H      48.434950000000001     52.393750000000004     48.634319999999988
H      45.507350000000002     50.019650000000006     44.905419999999992
H      44.195549999999997     48.265949999999997     49.043319999999994
H      48.877949999999998     52.718950000000000     46.271819999999991
H      47.472449999999995     51.686749999999996     44.251120000000000
