18

C      47.254899999999992     47.713899999999995     48.298449999999988
C      48.622199999999999     48.141900000000000     47.967349999999996
C      46.143999999999998     48.444700000000005     47.547250000000005
C      48.767600000000009     49.234699999999997     46.902950000000004
C      48.068900000000006     46.159799999999997     50.025450000000006
C      49.788400000000003     47.540699999999994     48.460949999999997
C      46.515999999999998     49.545899999999996     46.652150000000006
C      47.884399999999992     49.655300000000004     45.983549999999994
C      46.977300000000000     46.692299999999996     49.421650000000000
C      49.390499999999996     46.651099999999992     49.671050000000008
H      45.321599999999997     47.810700000000004     47.723450000000000
H      49.847799999999999     49.545200000000001     46.637950000000004
H      47.910599999999995     45.578899999999997     50.853449999999995
H      50.678400000000003     47.958400000000005     48.045349999999999
H      45.939200000000000     50.237800000000000     46.217849999999999
H      48.215499999999999     50.421100000000003     45.146550000000005
H      46.000399999999999     46.536700000000003     49.559449999999998
H      50.313299999999998     46.154899999999991     50.101150000000004
