18

C      48.252599999999994     48.555599999999998     47.406799999999990
C      47.459100000000007     47.727699999999999     48.529699999999991
C      48.803400000000011     48.257099999999994     46.095500000000001
C      47.415000000000006     46.378000000000000     47.973900000000000
C      48.383700000000005     49.907300000000006     47.887000000000000
C      46.952300000000001     48.010599999999997     49.755099999999999
C      48.421199999999999     46.835800000000006     45.728099999999998
C      47.572600000000001     45.933800000000005     46.590999999999994
C      48.246400000000001     50.228300000000004     49.389899999999997
C      47.554900000000004     49.258399999999995     50.267399999999995
H      49.217100000000002     48.832899999999995     45.400400000000005
H      47.151800000000001     45.649799999999999     48.777799999999999
H      48.533400000000000     50.710899999999995     47.074299999999994
H      46.782899999999998     47.088300000000004     50.654200000000003
H      48.571700000000007     46.721699999999998     44.658900000000003
H      47.404899999999998     44.940799999999996     46.489999999999995
H      48.632900000000006     51.059200000000004     49.582700000000003
H      47.660499999999999     49.508599999999987     51.341099999999997
