18

C      47.597854999999996     47.767754999999994     48.513649999999998
C      48.480065000000003     48.599755000000002     47.832149999999999
C      46.438213000000005     47.443455000000000     47.608550000000008
C      48.516995000000001     49.177755000000005     46.495350000000002
C      48.017355000000002     47.189054999999996     49.859849999999994
C      49.571215000000002     49.103155000000001     48.684250000000006
C      46.308311000000003     48.126655000000000     46.316550000000007
C      47.357225000000000     48.912854999999993     45.668450000000007
C      49.072844999999994     47.816554999999994     50.592250000000007
C      49.818345000000001     48.874354999999994     50.061349999999990
H      45.794825000000003     46.699254999999994     48.014650000000003
H      49.367935000000003     49.572354999999988     46.009249999999994
H      47.561925000000002     46.134545000000003     50.010649999999998
H      50.603974999999998     49.865454999999997     48.355649999999997
H      45.396025000000002     47.817355000000006     45.532049999999998
H      47.204805000000000     49.272954999999996     44.547349999999994
H      49.405365000000010     47.247855000000001     51.452650000000006
H      50.343255000000006     49.457255000000004     50.823850000000007
