8

C      48.131749999999997     47.224899999999991     48.356099999999991
C      48.092150000000004     48.711300000000001     47.595100000000002
H      48.514549999999986     46.459099999999999     47.907800000000009
H      48.759649999999993     47.165799999999997     49.216099999999997
H      48.264149999999987     49.540900000000001     48.498400000000004
H      47.029749999999993     49.084399999999995     46.783900000000003
H      49.115849999999995     49.097000000000001     47.368899999999996
H      46.884150000000005     46.916699999999999     48.574600000000004
