43

C      49.694249999999997     52.161175000000000     43.658944999999996
C      47.437850000000005     46.524055000000004     49.952815000000001
C      46.405149999999999     47.492465000000003     49.324305000000010
C      50.245150000000002     48.589775000000003     46.287745000000001
C      49.325250000000004     49.557275000000004     45.946205000000006
C      48.758650000000003     46.562415000000001     49.379355000000004
C      46.689750000000004     48.511175000000001     48.395645000000002
C      50.194350000000007     47.560425000000002     47.383095000000012
C      48.178650000000005     49.657075000000006     46.839245000000005
C      49.143850000000008     47.515245000000000     48.199715000000005
C      48.080150000000003     48.507975000000002     47.770925000000005
C      47.013250000000006     45.486305000000002     50.901625000000010
C      45.552650000000007     45.373775000000002     50.702925000000008
C      44.462250000000004     45.782465000000002     49.897245000000005
C      45.013350000000003     47.016565000000007     49.419355000000010
C      51.329249999999995     48.825575000000008     45.251035000000002
C      50.846049999999998     51.289075000000004     44.449775000000002
C      51.114550000000001     49.782575000000001     44.056845000000010
C      49.612650000000002     50.220175000000005     44.801945000000003
C      48.027250000000002     44.538395000000001     51.610225000000007
C      47.416750000000000     43.713055000000004     52.646025000000009
C      46.007750000000001     43.451735000000006     52.386325000000014
C      45.090049999999998     44.131935000000006     51.499825000000001
C      49.777450000000009     45.804775000000006     50.092395000000003
C      49.310350000000007     44.713115000000002     50.870024999999998
C      51.518149999999999     46.907445000000003     47.610365000000002
H      49.016150000000003     52.529375000000009     44.492705000000008
H      49.951450000000001     53.116774999999997     43.153905000000002
H      49.320349999999998     51.762075000000003     42.566675000000004
H      45.982350000000004     49.247875000000001     47.955245000000005
H      47.319350000000007     50.422275000000006     46.628315000000015
H      43.480550000000001     45.331315000000004     49.911345000000004
H      44.526350000000001     47.788265000000003     48.930295000000001
H      51.849349999999994     47.903265000000005     45.171765000000008
H      51.270150000000008     51.663475000000005     45.227505000000008
H      50.918050000000001     49.502575000000000     42.969145000000005
H      48.637950000000004     50.201875000000001     44.268735000000007
H      48.348350000000003     43.387365000000003     53.293525000000002
H      45.693649999999998     42.883225000000003     53.433324999999996
H      43.997250000000001     43.911345000000004     51.292025000000010
H      50.739049999999999     46.042535000000001     49.860545000000002
H      50.098050000000008     44.097155000000001     51.369325000000003
O      52.519449999999999     46.520614999999999     47.762825000000007
