5

C      47.750999999999998     47.845699999999994     47.903499999999987
H      47.111199999999997     48.554300000000005     47.250900000000001
H      48.453199999999995     48.757899999999999     48.504599999999996
H      47.275499999999994     47.242100000000001     48.749099999999999
H      48.888800000000003     47.683700000000002     47.714799999999997
