18

C      47.961449999999985     47.920249999999996     47.374599999999987
C      48.095749999999995     47.791149999999995     48.776600000000002
C      48.319949999999992     49.051650000000002     46.467100000000002
C      48.939850000000007     48.815450000000006     49.191400000000002
C      47.346850000000003     46.906550000000003     46.522000000000006
C      47.199550000000002     46.830450000000006     49.547899999999998
C      49.273650000000004     49.925249999999998     47.015699999999995
C      49.653149999999997     49.699649999999998     48.321299999999994
C      46.545749999999998     45.876349999999995     47.226100000000002
C      46.312950000000001     46.134449999999994     48.662899999999993
H      47.807649999999995     48.982750000000003     45.416300000000007
H      48.694450000000003     48.651350000000001     50.228300000000004
H      47.314250000000001     47.093849999999996     45.412099999999995
H      46.854950000000002     46.750149999999998     50.587900000000005
H      49.975850000000008     50.666850000000004     46.389200000000002
H      50.393050000000002     50.260950000000001     48.888099999999994
H      45.606949999999998     45.333149999999996     46.642600000000002
H      45.620949999999993     45.573050000000002     49.065600000000003
