18

C      48.553599999999996     47.200349999999993     47.957400000000000
C      47.454700000000003     48.195149999999998     47.976200000000006
C      48.682099999999991     46.319049999999997     46.881799999999998
C      46.300399999999996     48.005350000000007     47.124000000000009
C      49.533900000000003     47.207750000000004     49.035700000000006
C      47.637699999999995     49.373050000000006     49.015700000000010
C      47.653899999999993     46.258150000000001     45.904200000000003
C      46.640599999999992     47.219250000000002     45.854900000000001
C      49.623999999999995     48.182050000000004     50.074900000000000
C      48.781399999999991     49.353149999999999     49.912300000000002
H      49.417699999999996     45.565150000000003     46.572500000000005
H      45.600999999999999     49.003250000000008     47.047899999999998
H      50.246399999999994     46.504649999999998     49.006500000000003
H      47.304800000000000     50.434849999999997     48.794300000000007
H      47.661099999999990     45.611850000000004     45.084800000000001
H      45.898200000000003     47.064550000000004     45.068899999999999
H      50.399000000000001     47.927849999999999     50.931100000000001
H      49.023299999999992     50.308149999999998     50.363600000000005
