50

C      49.442199999999985     48.543044999999999     46.628149999999998
C      49.747999999999998     47.185945000000004     46.027349999999998
C      46.393999999999998     46.127245000000002     49.852150000000002
C      47.115599999999993     44.888745000000000     49.471450000000004
C      48.367399999999996     48.532845000000009     47.683849999999993
C      49.344699999999996     45.858545000000007     46.501150000000003
C      47.009699999999995     47.340645000000009     49.296450000000007
C      48.171599999999998     44.678545000000000     48.453149999999994
C      48.016099999999994     47.169745000000006     48.210050000000010
C      48.534399999999998     45.865345000000005     47.705250000000007
C      49.750399999999992     49.985645000000005     46.258550000000000
C      50.316299999999998     49.779145000000000     44.963450000000002
C      50.748100000000001     48.366345000000010     44.370650000000005
C      50.380099999999992     47.055445000000006     44.739450000000005
C      45.273399999999995     46.078045000000003     51.005650000000003
C      44.748099999999994     44.702545000000001     51.261350000000007
C      45.599799999999995     43.509444999999999     51.062849999999997
C      46.685699999999997     43.566645000000008     50.087350000000001
C      49.200199999999995     51.306044999999997     46.606349999999999
C      50.002599999999994     52.497856000000013     46.079149999999998
C      50.483899999999998     52.234836000000001     44.701850000000000
C      50.621299999999998     50.900445000000005     44.224550000000001
C      48.262799999999999     51.130445000000009     47.778150000000004
C      47.845499999999994     49.760545000000008     48.286750000000005
C      47.350899999999996     49.731845000000007     49.591450000000002
C      46.440399999999997     48.593645000000009     49.932649999999995
C      44.729899999999994     47.359144999999998     51.548650000000002
C      45.411899999999996     48.499445000000009     50.996350000000000
C      50.152499999999996     44.759444999999999     45.666450000000005
C      50.759099999999997     45.471545000000006     44.467350000000003
C      51.719599999999993     44.794645000000003     45.626150000000003
C      49.651299999999999     43.378145000000004     45.201450000000001
H      48.644699999999993     43.707345000000004     48.162050000000001
H      51.289899999999996     48.192745000000002     43.348849999999999
H      43.812199999999997     44.615944999999996     51.994750000000010
H      45.175599999999996     42.483244999999997     51.225549999999998
H      46.891499999999994     42.663845000000009     49.634450000000001
H      49.937899999999992     53.516755000000003     46.187350000000002
H      50.593199999999989     53.254025000000013     44.241450000000000
H      51.219999999999992     50.590545000000006     43.335450000000002
H      47.317199999999993     50.633745000000005     50.332049999999995
H      44.350999999999992     47.436545000000010     52.664549999999998
H      45.094400000000000     49.362445000000008     51.661349999999999
H      49.919599999999996     42.891045000000005     46.325150000000001
H      50.922299999999993     45.191344999999998     43.339649999999999
H      52.187800000000003     43.841045000000008     45.743250000000003
H      52.130399999999987     45.671545000000009     46.140050000000002
H      48.471999999999994     42.820045000000007     45.652050000000003
H      50.388799999999996     42.614845000000003     44.650250000000000
O      47.896399999999993     52.215367000000001     48.187249999999992
