183

C      48.159450000000000     45.643649999999994     53.785149999999994
C      44.856350000000006     45.494050000000001     54.105949999999993
C      48.130850000000009     46.039449999999988     52.443049999999999
C      45.149150000000006     44.356450000000009     53.060450000000003
C      47.382249999999999     45.959450000000004     51.173149999999993
C      43.906149999999997     44.083550000000002     52.244349999999997
C      45.151150000000001     44.600450000000009     51.772949999999994
C      48.847750000000005     45.674350000000004     54.955649999999999
C      47.896950000000004     46.801550000000006     55.193950000000001
C      46.795650000000009     46.194849999999988     55.994050000000001
C      45.493250000000003     46.162350000000004     55.318749999999994
C      47.355450000000005     44.699350000000010     50.249849999999995
C      50.198149999999998     45.665949999999995     55.437149999999995
C      48.219250000000002     44.260150000000010     54.458249999999992
C      48.460050000000010     47.044450000000012     51.240850000000002
C      44.103949999999998     45.535250000000005     55.241849999999992
C      42.952849999999998     46.462450000000004     55.693150000000003
C      46.093750000000000     45.419050000000013     50.880449999999996
C      46.895350000000008     46.807150000000007     57.416749999999993
C      46.871150000000000     45.090850000000003     57.114849999999990
C      48.836950000000002     55.126150000000010     40.155349999999999
C      46.908550000000005     41.761150000000001     49.620449999999991
C      45.694650000000010     41.575150000000008     48.706949999999999
C      45.118450000000010     43.064650000000015     54.009749999999997
C      47.017750000000007     41.731250000000003     51.119549999999997
C      44.380650000000003     41.910850000000011     49.496549999999999
C      45.554349999999999     41.826250000000002     53.246249999999996
C      43.572249999999997     40.741750000000010     50.524250000000002
C      45.671950000000010     41.794450000000012     51.752449999999996
C      44.405550000000005     41.942450000000008     50.997850000000000
C      48.226050000000001     41.399550000000005     48.894149999999996
C      48.473650000000006     41.350150000000014     47.474549999999994
C      47.222050000000010     41.601750000000010     46.624650000000003
C      45.872950000000003     41.460450000000009     47.240150000000000
C      49.287850000000006     41.458350000000010     49.875549999999997
C      50.619850000000000     40.921550000000011     49.454849999999993
C      50.955250000000007     40.887450000000001     48.131050000000002
C      49.755350000000007     40.912950000000009     47.169550000000001
C      49.282049999999991     41.566550000000007     51.428150000000002
C      48.069150000000008     41.589250000000007     52.180149999999998
C      48.047550000000001     41.252450000000010     53.581049999999991
C      46.611249999999998     40.924150000000012     54.010550000000002
C      44.439250000000001     42.287050000000008     46.706549999999993
C      44.178449999999998     41.776050000000012     54.006149999999991
C      43.469149999999999     42.872650000000007     51.436850000000000
C      46.732050000000001     39.200450000000004     53.873949999999994
C      43.438150000000007     42.908950000000004     48.637050000000002
C      45.564350000000005     40.189350000000005     47.423450000000003
C      50.163249999999998     45.220650000000006     42.768349999999998
C      51.885750000000002     44.232050000000001     44.698650000000001
C      47.402150000000006     42.374450000000010     45.325050000000005
C      47.325050000000005     46.658950000000004     42.067549999999997
C      50.629550000000002     44.017750000000007     45.601450000000000
C      49.253349999999998     44.773850000000010     45.124849999999995
C      46.750550000000004     43.533750000000012     44.871250000000003
C      48.955250000000007     45.281450000000007     43.739750000000001
C      48.147649999999999     43.938550000000006     44.674849999999992
C      49.720950000000002     45.326550000000012     41.303849999999997
C      48.961750000000009     45.146750000000011     40.263850000000005
C      52.613650000000000     43.833550000000002     43.432649999999995
C      47.420450000000002     45.045950000000005     40.217950000000002
C      46.514449999999997     46.446749999999994     43.521749999999997
C      48.069450000000003     45.451950000000011     41.392749999999999
C      48.045450000000002     46.596350000000001     43.608750000000001
C      51.386350000000007     44.610350000000011     43.386150000000001
C      48.767650000000003     47.712350000000001     44.193449999999999
C      49.759450000000001     44.880950000000013     46.650049999999993
C      45.801550000000006     43.369250000000008     43.812550000000002
C      46.352550000000008     44.252450000000010     39.399749999999997
C      46.041049999999998     44.425650000000005     46.075949999999992
C      46.728750000000005     47.873150000000010     41.269250000000000
C      46.616849999999999     54.295250000000010     40.630150000000000
C      46.157650000000004     52.967050000000000     40.638750000000002
C      50.221049999999998     51.162549999999996     41.912050000000001
C      48.044449999999998     54.293549999999996     41.046650000000000
C      46.663350000000008     51.536450000000002     40.601649999999999
C      50.083250000000007     52.561049999999994     41.769350000000003
C      48.904850000000003     50.575250000000011     41.544950000000000
C      48.716450000000009     52.957250000000002     41.304150000000000
C      48.007550000000009     51.695050000000009     41.182350000000000
C      45.799350000000004     55.507650000000012     40.123149999999995
C      44.809049999999999     56.419049999999999     40.724850000000004
C      43.549750000000003     53.796750000000003     41.053049999999999
C      44.609650000000002     52.649749999999997     40.795950000000005
C      47.740750000000006     55.191450000000003     42.334750000000000
C      46.937350000000009     56.604050000000001     41.865549999999999
C      46.150250000000000     56.724349999999987     40.465550000000000
C      45.741650000000007     50.239149999999995     40.371549999999999
C      44.292749999999998     50.270049999999998     39.879449999999991
C      43.785449999999997     51.510750000000002     40.390450000000001
C      45.305050000000008     55.211649999999992     38.644049999999993
C      44.489950000000007     50.670350000000013     38.327649999999998
C      45.630949999999999     49.165850000000006     41.612250000000003
C      43.265650000000008     49.092349999999996     40.143749999999997
H      48.758049999999990     47.491550000000004     55.290250000000000
H      47.965450000000004     44.823350000000005     49.334949999999999
H      50.194450000000003     44.657950000000014     56.001049999999999
H      50.702549999999995     46.621249999999989     55.453949999999999
H      49.012549999999997     43.693250000000006     54.031949999999995
H      47.414150000000006     43.463750000000005     54.242549999999994
H      48.200350000000000     48.080050000000014     51.092849999999999
H      42.680950000000010     45.897350000000003     56.590949999999992
H      44.275850000000005     44.685250000000011     56.007949999999994
H      42.179850000000002     46.485850000000013     55.062849999999997
H      45.593249999999998     46.181049999999999     50.158250000000002
H      47.758750000000006     47.487450000000010     57.712549999999993
H      45.620750000000001     47.170350000000013     57.411250000000003
H      46.945850000000007     44.820350000000005     58.281149999999997
H      47.948450000000008     44.720950000000002     57.229550000000003
H      49.542650000000009     54.574250000000006     39.497250000000001
H      49.754450000000006     55.571950000000001     40.606250000000003
H      48.305350000000004     56.069449999999989     39.769849999999998
H      53.820149999999998     42.060950000000005     42.662649999999999
H      45.777450000000002     43.284950000000009     54.806249999999991
H      44.037350000000004     39.663250000000005     50.820949999999996
H      51.478050000000010     40.688450000000003     50.175249999999991
H      50.343450000000004     41.047950000000014     46.244150000000005
H      50.234650000000002     41.418250000000015     51.885849999999991
H      49.012950000000004     40.997450000000001     54.091249999999995
H      46.534950000000009     40.869150000000005     55.194449999999996
H      43.163049999999998     41.858450000000005     54.063949999999991
H      44.442350000000005     40.931150000000002     54.700249999999997
H      42.566650000000010     40.333750000000009     49.999749999999999
H      42.364249999999998     42.742650000000012     51.078850000000003
H      47.141150000000010     38.506350000000012     54.881549999999990
H      47.712750000000000     39.012950000000004     53.266549999999995
H      45.842449999999999     38.672350000000009     53.788649999999990
H      44.559550000000002     41.736750000000001     45.752049999999997
H      42.412750000000003     42.905550000000005     49.086249999999993
H      43.803250000000006     43.777950000000004     48.816549999999992
H      46.205849999999998     39.406850000000006     47.743250000000003
H      44.574750000000009     39.783650000000009     47.319850000000002
H      43.462450000000004     47.545849999999987     55.546249999999993
H      48.070149999999998     41.793150000000011     44.601749999999996
H      50.402450000000002     42.824450000000013     46.007449999999999
H      45.731250000000003     45.676149999999993     43.899050000000003
H      47.998050000000006     48.450950000000006     43.706150000000001
H      49.034850000000006     47.601450000000000     45.311450000000001
H      49.875650000000000     47.819350000000014     43.576650000000001
H      49.101349999999996     44.412850000000006     47.322150000000001
H      46.118049999999997     47.403150000000011     43.757149999999996
H      50.067149999999998     45.980050000000006     46.923450000000003
H      45.455449999999999     42.299850000000006     43.762850000000000
H      46.273949999999999     43.409650000000013     42.956350000000000
H      45.061850000000007     44.213750000000005     43.944249999999997
H      45.390050000000002     44.388050000000007     39.935749999999999
H      46.765150000000006     43.276050000000012     38.726150000000004
H      46.266850000000005     44.839450000000014     38.483350000000002
H      46.660250000000005     45.389850000000010     45.967449999999999
H      46.500850000000000     44.056250000000006     47.162549999999996
H      44.942250000000001     44.461750000000009     46.254750000000001
H      46.208150000000003     47.431950000000001     40.328850000000003
H      47.565849999999998     48.419850000000011     40.955749999999995
H      50.848349999999996     50.635650000000012     42.174650000000000
H      50.869349999999990     53.070550000000011     42.344250000000002
H      48.610449999999993     49.548349999999999     41.651250000000005
H      43.964449999999999     56.813350000000000     40.215550000000000
H      48.606549999999991     55.446950000000001     42.896050000000002
H      47.363950000000003     54.793049999999994     43.223150000000004
H      46.700950000000006     57.213450000000009     42.622050000000002
H      47.757950000000008     57.493649999999988     41.579450000000001
H      46.538750000000007     57.411350000000013     39.725949999999997
H      46.233150000000009     49.386750000000006     39.597149999999999
H      42.717350000000010     51.347850000000008     40.577449999999999
H      46.142350000000008     55.662549999999996     38.059950000000001
H      44.340550000000007     55.618050000000011     38.240049999999997
H      45.361649999999997     53.919050000000013     38.511150000000001
H      45.527550000000005     50.731350000000006     38.084350000000001
H      43.804250000000010     49.990850000000009     37.718850000000003
H      44.118949999999998     51.705950000000001     38.305850000000000
H      45.920050000000003     49.946750000000009     42.396749999999997
H      44.769150000000010     48.729450000000014     42.022050000000000
H      42.323149999999998     49.681250000000006     40.277550000000005
H      43.602050000000006     48.142850000000010     39.599750000000000
H      43.371350000000007     48.465449999999990     41.047049999999999
H      53.128050000000002     42.907350000000008     41.282650000000004
H      52.442850000000000     39.743450000000010     46.867149999999995
H      47.668650000000000     43.670850000000002     50.829850000000000
H      49.448949999999989     47.043849999999992     50.975549999999998
N      53.079749999999997     42.935050000000004     42.283349999999999
O      43.349649999999997     42.661650000000009     47.082650000000001
O      52.185650000000010     40.597650000000002     47.432649999999995
O      42.931650000000005     54.581750000000014     41.506250000000001
