18

C      47.020199999999988     48.078924999999998     48.207599999999992
C      48.211500000000001     47.288101000000005     47.672699999999999
C      46.963499999999996     49.038565000000013     49.266000000000005
C      47.798199999999994     46.329375000000020     46.650900000000000
C      48.283499999999989     49.728425000000009     49.664600000000000
C      49.589799999999997     47.476239000000007     47.745800000000003
C      45.828299999999999     47.334027000000006     47.600800000000000
C      46.363499999999988     46.249675000000018     46.763199999999998
C      49.620699999999999     49.521155000000000     49.221900000000005
C      50.199699999999993     48.703255000000006     48.098300000000002
H      46.175199999999990     48.915915000000005     50.030100000000004
H      48.358799999999988     45.860375000000012     45.814200000000000
H      48.284999999999997     50.594725000000004     50.185800000000000
H      50.399199999999993     46.966845000000006     47.059300000000000
H      44.695599999999999     47.611628000000003     47.490099999999998
H      45.727799999999988     45.405274999999996     46.482399999999998
H      50.519899999999993     50.187445000000004     49.550200000000004
H      51.304400000000001     48.658324999999998     47.768400000000000
