18

C      48.418199999999992     48.179149999999993     47.382050000000000
C      47.304400000000001     47.816249999999997     48.372749999999996
C      48.704899999999995     49.560550000000006     47.279150000000001
C      46.645699999999998     48.780650000000009     49.212450000000004
C      49.341899999999995     47.133250000000004     46.779049999999998
C      47.238599999999998     46.451949999999997     48.503050000000002
C      48.070999999999998     50.529550000000000     48.176850000000002
C      46.942499999999995     50.148350000000008     48.961250000000007
C      49.121299999999998     45.693250000000006     46.846350000000001
C      48.025799999999997     45.519050000000007     47.812049999999999
H      49.467200000000005     50.202150000000003     46.652150000000006
H      45.794499999999999     48.393250000000009     49.946349999999995
H      50.205500000000001     47.056350000000009     46.053650000000005
H      46.524600000000000     46.123950000000008     49.433750000000003
H      48.186499999999995     51.651550000000000     47.942650000000000
H      46.293999999999997     50.921850000000006     49.680450000000008
H      49.474900000000005     45.120450000000005     46.130150000000000
H      47.869099999999996     44.348450000000000     48.058149999999998
