15

C      47.835149999999999     47.317899999999987     47.806899999999985
C      47.045850000000009     46.129199999999997     48.170100000000005
C      47.271149999999999     48.652599999999993     48.106799999999993
C      48.256949999999996     49.758099999999999     48.165799999999990
C      49.495449999999998     49.094699999999996     48.038199999999989
C      49.254950000000001     47.723999999999990     47.936999999999998
C      45.751950000000001     46.453199999999995     47.887900000000002
C      50.314650000000007     46.773599999999995     48.067500000000010
H      47.483150000000002     45.181399999999996     48.110299999999995
H      46.143549999999998     48.959899999999998     48.405499999999989
H      47.982450000000007     50.818600000000004     48.412900000000008
H      50.552250000000008     49.432499999999997     47.991999999999990
H      51.275449999999999     47.135500000000000     47.796199999999999
H      50.205649999999999     45.796599999999998     48.504000000000005
O      44.724550000000001     46.261800000000001     47.495999999999995
