29

C      48.219299999999990     46.544799999999981     48.940194999999989
C      47.382799999999996     47.678500000000000     48.673044999999988
C      48.067299999999996     44.947599999999994     49.144924999999986
C      49.375499999999995     45.822699999999998     48.983744999999985
C      50.905400000000000     46.500499999999988     48.540794999999989
C      49.467099999999995     44.352499999999992     48.964524999999981
C      44.610699999999994     48.715499999999992     47.524524999999997
C      44.979799999999997     49.545599999999993     48.770294999999990
C      45.059399999999997     47.250799999999998     47.856604999999988
C      45.831099999999999     49.023300000000006     50.026024999999990
C      44.210299999999997     49.410399999999996     46.290275999999992
C      44.968599999999995     50.949399999999997     48.591894999999994
C      45.149099999999997     46.658900000000003     49.194224999999989
C      45.913699999999999     47.689599999999999     49.147224999999992
C      44.444699999999997     50.806100000000001     46.122712999999990
C      44.560899999999997     51.497699999999995     47.388884999999988
H      47.840199999999996     48.622600000000006     48.415674999999993
H      47.475699999999996     44.771299999999997     50.118274999999997
H      49.678999999999995     43.294699999999992     48.757804999999991
H      50.979900000000001     45.915700000000001     47.487504999999985
H      45.587499999999999     46.711600000000004     47.118984999999995
H      46.775399999999998     49.306399999999996     50.648174999999981
H      44.097400000000000     48.959499999999991     45.259965000000008
H      44.944199999999995     51.692899999999995     49.347364999999996
H      45.350800000000000     45.768999999999991     49.406454999999994
H      44.965100000000000     48.756100000000004     50.778334999999984
H      44.212199999999996     51.414899999999989     45.221665000000016
H      44.624299999999998     52.705300000000008     47.242564999999985
O      51.902600000000000     47.102799999999988     48.869054999999989
