6

C      48.648249999999990     48.070849999999993     47.895049999999998
C      47.476849999999999     47.646849999999993     48.040249999999993
H      49.073349999999998     48.685949999999998     48.768750000000004
H      49.183550000000004     47.964350000000003     47.017749999999999
H      46.816449999999996     47.827449999999999     48.982250000000001
H      46.828850000000003     47.314050000000002     47.094150000000006
