65

C      50.758349999999993     45.423099999999998     47.447100000000006
C      46.100650000000002     47.890799999999999     52.300399999999996
C      49.582850000000001     46.204200000000000     46.919100000000000
C      45.827349999999996     48.333200000000005     50.882599999999996
C      51.222650000000002     45.418199999999999     48.917999999999992
C      47.223349999999996     47.478499999999997     52.827900000000000
C      48.643050000000002     46.686700000000002     47.954300000000003
C      46.818849999999998     47.702600000000004     49.885199999999998
C      50.424349999999997     46.012500000000003     51.382499999999993
C      49.575249999999997     46.668800000000005     52.450500000000005
C      50.280149999999999     45.949399999999997     49.922700000000006
C      48.297950000000000     47.238600000000005     51.910200000000003
C      49.116650000000000     46.677300000000002     49.379999999999995
C      48.132449999999999     47.156300000000002     50.407100000000000
C      47.412050000000001     47.240099999999998     47.432000000000002
C      46.647849999999998     48.075900000000004     48.505899999999997
C      51.773750000000000     44.944500000000005     46.459699999999998
C      51.262650000000001     45.027699999999996     45.003500000000003
C      50.218750000000000     45.755600000000001     44.508899999999997
C      49.264350000000000     46.174599999999998     45.396199999999993
C      48.025149999999996     46.703699999999998     45.083299999999994
C      47.002549999999999     47.093999999999994     46.087099999999992
C      42.174050000000001     51.280100000000004     47.950000000000003
C      42.906450000000000     51.564099999999996     48.972899999999996
C      44.736150000000002     48.906800000000004     50.146000000000001
C      43.285750000000000     50.329599999999999     48.309399999999997
C      44.363050000000001     49.299099999999996     48.671099999999996
C      45.404649999999997     48.657899999999998     47.967200000000005
C      45.681550000000001     47.882199999999997     45.635300000000001
C      45.288449999999997     49.025999999999996     46.522000000000006
C      52.047350000000002     44.354399999999998     49.461799999999997
C      53.187850000000005     43.751700000000000     48.673500000000004
C      52.760349999999995     44.176100000000005     46.992300000000000
C      49.941850000000002     45.929000000000002     43.092799999999997
C      53.015049999999995     45.795599999999993     46.654899999999998
C      46.316649999999996     50.242199999999997     46.297200000000004
C      43.925849999999997     52.426699999999997     49.670699999999997
C      53.176350000000006     47.211799999999997     47.338999999999999
H      47.124150000000000     47.459999999999994     54.022499999999994
H      51.250250000000001     45.670599999999993     52.007499999999993
H      49.895750000000000     46.752399999999994     53.488000000000000
H      51.876049999999999     44.779200000000003     44.200100000000006
H      47.741949999999996     46.865099999999998     43.958799999999997
H      45.401550000000000     47.858800000000002     53.306699999999992
H      43.892249999999997     49.322699999999998     50.741600000000005
H      45.570749999999997     47.942499999999995     44.607600000000005
H      44.893349999999998     47.099000000000004     45.926400000000001
H      44.282150000000001     49.461600000000004     46.193299999999994
H      51.592950000000009     43.559600000000003     49.989000000000004
H      52.625149999999998     44.822999999999993     50.413299999999992
H      53.166249999999998     42.640400000000000     48.849000000000004
H      54.376750000000001     43.877799999999993     49.060599999999994
H      53.144649999999992     43.298100000000005     46.423199999999994
H      53.573749999999997     46.024199999999993     45.634399999999999
H      54.317349999999998     47.563400000000001     47.865300000000005
H      46.078150000000001     51.300600000000003     46.448999999999998
H      47.103749999999998     50.186999999999998     45.288899999999998
H      47.240749999999998     50.002700000000004     46.852699999999999
H      43.881349999999998     53.359600000000000     50.475300000000004
H      44.729450000000000     51.912599999999998     50.069900000000004
H      44.595549999999996     53.181699999999992     48.791899999999998
H      52.411650000000002     47.394300000000001     48.265100000000004
H      52.996450000000003     48.108300000000000     46.699100000000001
H      41.623249999999999     51.143900000000002     46.938699999999997
O      50.144950000000001     46.024900000000002     41.977500000000006
