18

C      47.984399999999994     48.713199999999993     48.119199999999985
C      48.558000000000000     47.424800000000005     47.727699999999999
C      47.559199999999997     49.680199999999999     47.099199999999996
C      48.704000000000001     47.158000000000001     46.383800000000001
C      47.810899999999997     48.935900000000004     49.622600000000006
C      48.395900000000005     46.286400000000000     48.556100000000001
C      47.591100000000004     49.442099999999996     45.680700000000002
C      48.526299999999999     48.302900000000001     45.472499999999997
C      48.046600000000005     47.900999999999996     50.616100000000003
C      48.096499999999999     46.596600000000002     49.951200000000000
H      46.995899999999999     50.736699999999999     47.172399999999996
H      49.004100000000001     46.221699999999998     45.718299999999999
H      47.373500000000000     49.933700000000002     49.817599999999999
H      48.706099999999999     45.263300000000001     48.152599999999993
H      47.271200000000000     49.802199999999999     44.666399999999996
H      48.812300000000000     48.038800000000002     44.364699999999999
H      47.544699999999999     48.038499999999999     51.635300000000001
H      48.121999999999993     45.960099999999997     50.708299999999994
