18

C      47.794349999999994     48.816233999999980     47.984649999999995
C      47.947650000000003     47.408569999999983     48.607349999999997
C      46.721950000000000     49.074359999999999     46.987750000000005
C      46.973649999999999     46.407669999999996     48.629149999999996
C      48.936150000000005     49.696629999999999     47.909750000000003
C      49.244250000000001     46.966670000000008     49.214250000000007
C      45.651450000000004     48.204116999999997     47.076350000000005
C      45.883350000000000     46.929470000000009     47.811949999999996
C      50.239950000000000     49.222539999999995     48.274450000000002
C      50.293150000000004     47.897570000000016     48.855450000000005
H      46.942950000000003     49.986779999999996     46.421650000000000
H      46.893050000000002     45.279669999999996     48.817549999999997
H      48.804950000000012     50.720330000000004     47.502549999999999
H      49.409350000000003     45.966870000000029     49.578350000000000
H      44.544750000000001     48.397662999999994     46.536650000000009
H      45.324350000000003     46.152969999999996     47.887150000000005
H      50.877250000000004     49.912310000000005     48.310850000000002
H      51.455249999999999     47.763970000000015     48.983450000000005
