18

C      47.561899999999994     47.235069999999993     47.239799999999988
C      47.291899999999998     48.627180000000010     47.771300000000004
C      47.155299999999997     46.205070000000006     48.245500000000000
C      47.138999999999996     49.077780000000004     49.094000000000001
C      48.471599999999995     47.045990000000003     46.103100000000005
C      47.760300000000001     49.924880000000016     47.095300000000002
C      46.958599999999990     46.840240000000009     49.526599999999995
C      47.446699999999993     48.121750000000006     50.111399999999996
C      48.864399999999989     48.363480000000010     45.651999999999994
C      48.702100000000002     49.806980000000010     46.097000000000001
H      47.066000000000003     45.141419999999997     48.136000000000003
H      47.403099999999995     50.079580000000007     49.368199999999995
H      48.577999999999989     46.109780000000001     45.381599999999999
H      47.395399999999995     50.858580000000003     47.407400000000003
H      46.889600000000002     46.253950000000003     50.389500000000005
H      47.682499999999990     48.396380000000008     51.366700000000002
H      49.110399999999998     48.502380000000002     44.633299999999998
H      48.977899999999991     50.680580000000006     45.453899999999997
