18

C      47.313800000000001     48.349899999999991     48.328299999999999
C      48.689599999999999     48.145600000000002     47.992800000000003
C      46.395499999999998     47.300300000000007     48.907399999999996
C      49.002600000000001     46.732600000000005     47.952600000000004
C      46.826699999999988     49.717400000000012     48.397599999999997
C      49.527299999999997     49.191000000000003     47.446299999999994
C      46.747499999999988     45.964399999999998     48.808300000000003
C      48.023699999999991     45.748999999999995     48.311800000000005
C      47.495399999999989     50.524699999999996     47.421999999999997
C      48.933199999999999     50.374900000000011     47.146699999999996
H      45.358400000000003     47.337100000000007     48.898699999999991
H      50.026399999999995     46.309399999999997     47.730900000000005
H      45.773799999999994     50.140200000000007     48.586900000000000
H      50.641599999999997     48.985300000000009     46.980400000000003
H      46.107500000000002     44.878690000000006     49.066199999999995
H      48.223500000000001     44.655900000000003     48.129000000000005
H      46.752099999999999     51.344099999999997     47.207899999999995
H      49.668700000000001     51.250200000000007     46.933800000000005
