18

C      48.170199999999987     47.377519999999976     48.694799999999987
C      48.374799999999993     48.454419999999999     47.650900000000000
C      47.454599999999999     47.847920000000002     49.840300000000006
C      47.805499999999995     49.743972400000004     47.866000000000007
C      48.919199999999989     46.127519999999990     48.399700000000003
C      49.100499999999997     48.263219999999990     46.372000000000007
C      46.756899999999987     49.071919999999992     50.071599999999997
C      46.839099999999988     49.963459000000000     48.831600000000002
C      49.634599999999992     45.955719999999999     47.115900000000003
C      49.606200000000001     47.070619999999991     46.069600000000001
H      47.323699999999988     47.135719999999992     50.678900000000006
H      48.010799999999989     50.445462000000006     47.225199999999994
H      48.923499999999990     45.310620000000000     49.064500000000002
H      49.258699999999990     49.189719999999994     45.779400000000003
H      45.970900000000000     49.130920000000003     50.884899999999995
H      46.567999999999998     51.044680000000000     48.958199999999998
H      49.988999999999990     44.955320000000000     46.970300000000002
H      50.029100000000000     46.846719999999991     45.115100000000005
