18

C      47.826649999999994     47.591199999999994     48.760499999999993
C      48.214449999999999     48.198499999999996     47.353200000000001
C      48.364150000000002     46.291200000000003     48.921199999999992
C      49.045349999999999     47.706099999999999     46.289999999999999
C      46.958449999999999     48.442700000000002     49.752400000000002
C      48.028250000000000     49.663499999999999     47.418999999999997
C      49.221750000000000     45.634399999999999     47.872100000000003
C      49.425449999999998     46.336199999999998     46.645099999999999
C      46.524250000000002     49.837499999999991     49.518700000000003
C      47.252350000000000     50.387100000000004     48.337400000000002
H      48.167749999999998     45.720399999999998     49.838299999999997
H      49.472450000000002     48.197800000000001     45.211100000000002
H      46.782150000000001     47.865700000000004     50.788899999999998
H      48.504949999999994     50.055899999999994     46.477800000000002
H      49.825149999999994     44.730599999999995     48.197699999999998
H      49.610349999999997     45.618400000000001     45.774400000000000
H      46.174850000000006     50.365899999999996     50.303699999999999
H      47.564350000000005     51.269400000000005     48.061599999999999
