18

C      48.057949999999991     47.502199999999988     48.039099999999998
C      48.352850000000004     48.993199999999995     48.162800000000004
C      49.000849999999993     46.484299999999998     47.417200000000001
C      49.676549999999999     49.607199999999999     47.694099999999999
C      46.615050000000004     47.235300000000002     48.064100000000003
C      47.485250000000001     49.703899999999997     48.980499999999992
C      50.317249999999994     47.099299999999992     47.229399999999998
C      50.587350000000001     48.621900000000004     47.314599999999999
C      45.591349999999998     48.260100000000001     48.632000000000005
C      45.994149999999998     49.419300000000000     49.182299999999998
H      48.794750000000001     45.259200000000000     47.640200000000000
H      50.196150000000010     50.662900000000000     47.949100000000001
H      46.142949999999999     46.453600000000002     47.361499999999999
H      47.921750000000003     50.740800000000000     49.428500000000000
H      50.863149999999997     46.499000000000002     46.571500000000000
H      51.460850000000001     48.628899999999994     47.308700000000002
H      44.539149999999999     47.998199999999990     48.473399999999998
H      45.185050000000004     50.202499999999993     49.262200000000000
