18

C      48.097499999999989     48.595174999999998     48.663749999999993
C      48.128500000000003     48.018275000000003     47.302050000000001
C      48.917299999999997     48.029174999999995     49.752550000000006
C      48.899000000000001     46.894705000000002     47.078049999999998
C      47.281500000000001     49.691175000000001     49.070749999999997
C      47.202300000000001     48.503074999999995     46.308950000000003
C      49.922600000000003     47.092235000000002     49.387750000000004
C      49.933399999999999     46.490735000000001     48.017949999999999
C      46.280000000000001     50.069374999999994     48.011249999999997
C      46.210099999999997     49.486175000000003     46.630850000000002
H      48.981900000000003     48.198274999999995     50.755749999999999
H      48.732100000000003     46.286294999999996     46.156150000000004
H      46.808599999999998     49.825175000000002     49.917849999999994
H      47.188899999999997     48.148775000000001     45.244250000000001
H      50.552599999999998     46.590175000000002     50.164449999999995
H      50.721699999999998     45.660224999999997     47.731649999999995
H      45.278300000000002     50.339775000000003     48.264649999999996
H      45.331699999999998     49.864675000000005     45.876550000000002
