18

C      48.265149999999991     47.469049999999996     47.546499999999995
C      47.336350000000003     48.054349999999999     48.571599999999989
C      48.378450000000008     47.753349999999998     46.105099999999993
C      46.825550000000000     49.393850000000000     48.186700000000002
C      49.001950000000001     46.343450000000004     48.219300000000004
C      47.234850000000002     47.745850000000004     49.936699999999988
C      47.699750000000002     49.030550000000005     45.912800000000004
C      47.138349999999996     49.929450000000003     46.948499999999996
C      49.263950000000001     45.982249999999993     49.523799999999994
C      48.276249999999997     46.672049999999999     50.295800000000000
H      49.126049999999999     47.453249999999997     45.367800000000003
H      46.154750000000000     49.841650000000001     48.818600000000004
H      49.381350000000005     45.711050000000000     47.199299999999994
H      46.594550000000005     48.035849999999996     50.847899999999996
H      48.045850000000009     49.235049999999987     44.726100000000002
H      46.882349999999995     50.974350000000001     46.771400000000000
H      49.845250000000000     45.025649999999999     49.945200000000000
H      48.577850000000005     46.645650000000003     51.273899999999998
