18

C      47.267849999999996     48.428849999999990     48.160999999999987
C      48.541150000000002     48.554349999999999     47.340799999999994
C      46.058650000000007     47.876750000000001     47.803199999999997
C      48.286549999999998     47.808549999999997     46.027399999999993
C      47.447750000000006     48.492049999999992     49.553699999999999
C      49.784550000000003     48.932749999999999     47.872799999999991
C      46.052050000000001     47.127849999999995     46.584699999999991
C      47.157550000000008     47.077050000000000     45.629499999999993
C      48.804850000000009     48.718049999999991     50.072499999999998
C      49.891250000000007     49.124350000000000     49.251699999999992
H      45.188650000000003     47.826049999999995     48.640999999999998
H      48.772950000000002     47.900750000000002     45.211099999999995
H      46.538750000000000     48.450350000000000     50.354699999999987
H      50.699050000000007     49.030950000000004     47.087599999999995
H      45.446050000000007     46.519849999999998     46.277699999999996
H      47.216850000000001     46.487650000000002     44.691499999999998
H      49.023750000000000     48.559650000000005     51.308500000000002
H      50.811349999999997     49.512349999999998     49.572299999999991
