18

C      47.941449999999996     47.137199999999993     48.577949999999994
C      47.799050000000008     48.516100000000002     48.068550000000002
C      49.381349999999998     46.876500000000000     48.891049999999993
C      48.941350000000000     49.111899999999999     47.244850000000000
C      46.767650000000003     46.365200000000002     49.066649999999996
C      46.754550000000002     49.438600000000001     48.290549999999996
C      50.334350000000001     47.183900000000001     47.928749999999994
C      50.020350000000008     48.313799999999993     47.020849999999996
C      45.660450000000004     47.316499999999998     49.182249999999996
C      45.743850000000002     48.760899999999999     48.892749999999992
H      49.601450000000000     46.228999999999999     49.713650000000001
H      48.532950000000000     49.820099999999989     46.599449999999990
H      46.846550000000008     45.429400000000001     49.548249999999996
H      46.600650000000002     50.570599999999999     47.996749999999992
H      51.197350000000000     46.563299999999998     48.139650000000003
H      50.530250000000009     48.408899999999996     46.206750000000000
H      44.875850000000000     46.853000000000002     49.793250000000000
H      44.802650000000000     49.427399999999999     48.998249999999999
