20

C      45.089949999999988     50.231399999999994     47.617649999999990
C      48.752450000000010     47.128000000000000     47.370750000000001
C      49.014750000000006     48.207800000000006     48.210250000000002
C      45.559750000000008     49.066400000000002     47.064449999999994
C      48.049049999999994     49.265000000000001     47.903549999999996
C      49.719849999999994     45.980500000000006     47.366849999999999
C      50.087549999999993     48.313800000000001     49.215949999999992
C      47.419849999999997     47.241399999999999     46.784049999999993
C      46.930750000000003     48.515799999999999     47.222849999999994
C      50.724350000000001     45.939800000000005     48.346350000000001
C      50.930849999999992     47.285399999999996     48.951750000000004
H      44.083650000000006     50.415199999999999     47.410150000000002
H      45.588949999999997     51.068799999999996     48.273749999999993
H      45.086349999999996     48.302899999999994     46.652549999999998
H      47.869850000000000     50.207800000000006     48.335049999999995
H      49.236750000000001     44.931200000000004     47.145049999999998
H      50.441350000000000     49.194400000000002     49.816350000000000
H      46.975750000000005     46.566900000000004     46.183650000000000
H      51.464150000000004     45.242199999999997     48.342649999999999
H      51.916349999999994     47.346299999999999     49.367149999999995
