5

C      47.671149999999997     48.178199999999990     47.796749999999996
H      47.562650000000005     47.061000000000000     47.662050000000008
H      47.092550000000003     48.939000000000000     47.253050000000002
H      48.907449999999997     48.178599999999996     47.752850000000009
H      47.438050000000004     48.467999999999996     48.746949999999998
