18

C      48.458354999999997     48.077549999999988     47.688399999999987
C      47.259807999999992     48.020849999999996     48.372800000000005
C      49.489075000000000     47.088650000000001     47.980100000000000
C      47.014285299999997     47.027850000000001     49.478100000000005
C      48.631704999999997     48.875650000000007     46.478299999999997
C      46.226075000000009     49.002849999999995     48.212700000000005
C      49.334665000000001     46.022949999999994     48.973800000000004
C      48.070904999999996     46.049650000000000     49.691799999999994
C      47.931431000000003     50.080550000000002     46.577099999999994
C      46.622174999999984     50.177050000000008     47.416000000000004
H      50.358625000000004     47.429850000000002     47.394600000000004
H      46.066675000000004     46.641549999999995     49.501600000000003
H      49.267704999999992     48.478949999999998     45.800900000000006
H      45.641374999999996     49.036450000000002     49.068599999999996
H      49.896564999999995     45.036749999999998     49.265499999999996
H      47.725059000000002     45.258849999999995     50.199099999999994
H      47.888912000000005     50.807550000000006     45.807399999999994
H      45.841674999999995     50.963250000000002     47.295799999999993
