18

C      47.490349999999999     48.468699999999998     48.277999999999992
C      48.463449999999995     47.831500000000005     47.355799999999995
C      48.092550000000003     49.323900000000009     49.379100000000001
C      49.907150000000001     48.195300000000003     47.305100000000003
C      46.100949999999997     48.323700000000002     48.021200000000000
C      47.852649999999997     46.689900000000009     46.577400000000004
C      49.402850000000001     49.676900000000003     49.399399999999993
C      50.308949999999996     49.054299999999998     48.411600000000000
C      45.671850000000006     47.250399999999999     47.223499999999994
C      46.533950000000004     46.257199999999997     46.497199999999999
H      47.486450000000005     49.958200000000005     50.068100000000008
H      50.318449999999999     47.792000000000002     46.512200000000000
H      45.387650000000008     48.748300000000000     48.755400000000002
H      48.562650000000005     46.432000000000002     45.783200000000001
H      49.631950000000003     50.588399999999993     50.216799999999999
H      51.289050000000003     49.504099999999994     48.218100000000000
H      44.710949999999997     46.740300000000005     47.016900000000000
H      45.995850000000004     45.411600000000007     46.058500000000002
