6

C      48.803349999999995     47.713049999999996     47.720999999999989
C      47.500149999999991     48.171749999999989     48.343199999999989
H      49.259050000000002     47.749449999999996     46.668500000000002
H      49.622349999999997     47.620649999999998     48.702700000000000
H      47.458249999999992     48.379350000000002     49.331499999999998
H      46.377650000000003     48.089050000000000     47.937800000000003
