18

C      48.515599999999992     48.864099999999993     48.065549999999995
C      47.614200000000004     48.050200000000011     49.008550000000000
C      47.929499999999997     49.368600000000008     46.797550000000001
C      46.219900000000003     47.942400000000013     48.460049999999995
C      50.019600000000004     48.876000000000012     48.091949999999997
C      48.072400000000009     46.813200000000002     49.727249999999998
C      46.680700000000009     49.094000000000001     46.201650000000001
C      45.755400000000002     48.638500000000001     47.242949999999993
C      50.160600000000009     47.911600000000000     49.181449999999998
C      49.515900000000009     47.040700000000008     50.089849999999998
H      48.805000000000000     49.826000000000001     46.397649999999999
H      45.436000000000000     47.584099999999999     49.339950000000002
H      50.550199999999997     49.180200000000006     47.303649999999990
H      47.435000000000009     46.173999999999999     50.080150000000003
H      46.740500000000004     49.146300000000004     45.085949999999997
H      44.657400000000003     48.574100000000008     47.108049999999992
H      51.342599999999997     47.983499999999999     49.120249999999999
H      50.013900000000000     46.499700000000011     50.914050000000003
