18

C      48.540899999999993     47.345349999999989     48.035449999999997
C      47.449199999999998     48.229050000000001     47.596849999999996
C      48.317799999999998     46.704949999999997     49.278650000000006
C      46.204999999999998     48.117450000000005     48.241949999999996
C      49.893099999999997     47.423649999999995     47.566049999999997
C      47.748799999999996     49.080150000000003     46.381049999999995
C      47.110099999999996     46.631550000000004     50.160050000000005
C      46.100099999999998     47.416950000000000     49.494549999999997
C      49.942599999999999     48.192049999999995     46.320150000000005
C      49.006399999999999     49.357849999999999     45.860549999999996
H      49.210699999999996     46.141350000000003     49.853050000000003
H      45.302700000000002     48.521050000000002     47.865749999999998
H      50.593800000000002     46.804149999999993     47.912749999999996
H      46.651899999999998     49.362449999999995     46.010550000000002
H      46.991399999999999     46.341650000000001     51.172549999999994
H      45.095099999999995     47.191450000000003     49.850749999999998
H      50.904900000000005     48.104550000000003     45.711250000000000
H      49.153999999999996     49.858649999999997     44.827450000000006
