8

C      48.091650000000001     47.346049999999998     48.533999999999992
C      48.113649999999993     48.685150000000007     47.538700000000006
H      49.170649999999995     47.177150000000005     48.972099999999998
H      47.451050000000009     47.757450000000006     49.413299999999992
H      47.682650000000010     46.523250000000004     47.874899999999997
H      48.288550000000001     49.476749999999996     48.032399999999996
H      48.500650000000007     48.448950000000011     46.586700000000008
H      46.829350000000005     48.573550000000012     47.578100000000006
