5

C      48.196649999999998     48.025249999999993     48.172299999999993
H      48.758849999999995     47.105950000000000     48.610700000000001
H      47.241150000000005     47.284050000000001     48.401299999999999
H      48.499949999999998     47.901750000000000     47.056199999999997
H      47.967650000000006     48.894050000000000     48.943800000000003
