18

C      48.002599999999987     47.214799999999997     47.884249999999994
C      48.129000000000005     48.730699999999999     48.362850000000002
C      47.998800000000003     45.937799999999996     48.585850000000001
C      47.961100000000002     48.772999999999996     49.784250000000007
C      47.848699999999994     47.498099999999994     46.520149999999994
C      48.053600000000003     49.899900000000002     47.548449999999995
C      47.988799999999998     46.194699999999997     49.967850000000006
C      47.941500000000005     47.462599999999995     50.426750000000006
C      47.671899999999994     48.543300000000002     45.515049999999995
C      47.901799999999994     49.870899999999992     46.123049999999999
H      48.078500000000005     45.001099999999994     48.126449999999998
H      48.165300000000002     49.789999999999992     50.310350000000007
H      47.764600000000002     46.640000000000001     45.727049999999998
H      47.939200000000000     50.998900000000006     47.803950000000007
H      47.788399999999996     45.326899999999995     50.524250000000002
H      47.839100000000002     47.322100000000006     51.475749999999998
H      47.733199999999997     48.245300000000000     44.524250000000002
H      48.328100000000006     50.636600000000001     45.373950000000001
