18

C      47.823849999999993     47.933249999999987     47.443199999999990
C      47.047249999999991     47.744649999999993     48.630499999999991
C      47.574150000000003     48.969550000000005     46.461099999999995
C      46.008449999999996     48.674150000000004     49.068800000000003
C      49.090549999999993     47.293949999999995     47.292099999999998
C      47.530349999999999     46.672449999999998     49.470700000000001
C      46.720950000000002     49.919649999999997     47.038399999999996
C      45.940349999999995     49.922249999999998     48.344199999999994
C      49.640550000000005     46.273949999999999     48.104199999999999
C      48.645650000000003     45.780749999999998     49.139499999999991
H      47.570650000000001     48.834650000000003     45.472299999999997
H      45.384749999999997     48.321749999999994     50.029099999999993
H      49.597649999999987     47.708049999999993     46.329699999999995
H      47.138750000000002     46.473049999999994     50.527700000000003
H      46.708649999999992     50.876650000000005     46.620699999999992
H      45.724850000000004     50.850249999999996     49.120699999999992
H      50.615250000000003     45.890149999999998     48.106499999999997
H      49.266750000000002     45.123349999999995     49.694899999999997
