18

C      48.009899999999995     47.337349999999994     47.711050499999999
C      47.720399999999998     48.813050000000004     47.701260500000004
C      47.049899999999994     46.328249999999997     47.606090500000008
C      46.239500000000007     49.066350000000000     47.927450500000006
C      49.343800000000002     46.856049999999996     47.907990499999997
C      48.732399999999998     49.722250000000003     48.218470499999995
C      45.691800000000001     46.479649999999999     47.942770499999995
C      45.517300000000006     47.945750000000004     48.136920500000002
C      50.328900000000004     47.713650000000001     48.515030499999995
C      50.049099999999996     49.121349999999993     48.502520499999989
H      47.508499999999998     45.320650000000001     47.211959500000006
H      45.710099999999997     50.009349999999998     47.894720500000005
H      49.503500000000003     45.751950000000001     47.689020499999998
H      48.256900000000002     50.679349999999999     48.788040499999994
H      44.926400000000001     45.657250000000005     47.793360500000006
H      44.561400000000006     48.496250000000003     48.242040499999987
H      51.438599999999994     47.438249999999996     48.766380499999997
H      50.975999999999999     49.656250000000000     48.709860499999991
