18

C      48.398499999999991     47.599249999999991     48.002699999999990
C      47.637499999999996     48.645749999999992     47.373100000000001
C      47.763299999999994     46.238749999999996     47.929499999999997
C      46.247699999999995     48.457149999999999     47.138299999999994
C      49.486999999999995     47.952649999999991     49.000399999999992
C      48.393599999999992     49.829549999999998     47.145299999999999
C      46.397599999999997     46.126049999999992     47.670799999999993
C      45.527899999999995     47.318249999999992     47.147799999999997
C      50.410299999999992     48.775949999999995     48.307300000000005
C      49.714099999999995     49.870049999999992     47.607599999999998
H      48.044399999999996     45.254750000000001     48.264800000000001
H      45.888999999999996     49.362549999999999     46.628899999999994
H      49.905499999999996     47.162250000000000     49.553800000000003
H      48.264599999999994     50.745249999999999     46.446199999999997
H      45.724299999999999     45.310249999999996     47.829699999999995
H      44.454200000000000     47.363149999999997     46.952899999999993
H      51.545800000000000     48.646649999999994     48.518899999999995
H      50.537899999999993     50.701149999999998     47.423099999999998
