18

C      48.761849999999988     48.548299999999998     47.764149999999994
C      47.629149999999996     47.473200000000013     47.607050000000001
C      50.069749999999999     47.829300000000011     47.904949999999999
C      47.581149999999994     46.027100000000011     47.842550000000003
C      48.368849999999995     49.802400000000013     47.887450000000001
C      46.211449999999999     47.733499999999999     47.794950000000000
C      50.193550000000002     46.420300000000005     47.833950000000002
C      48.937249999999992     45.524900000000009     47.823750000000004
C      46.958149999999996     50.272100000000002     47.849049999999991
C      46.037949999999995     49.186500000000002     48.096949999999993
H      50.922550000000001     48.564200000000007     48.212249999999997
H      46.751649999999998     45.360500000000009     48.014949999999999
H      49.173049999999989     50.378500000000010     48.249650000000003
H      45.505249999999997     46.942600000000006     47.987650000000002
H      51.091650000000001     45.741700000000002     48.283249999999995
H      49.128749999999997     44.509200000000000     47.748950000000001
H      46.769250000000000     51.490800000000000     47.925550000000001
H      44.908349999999999     49.604300000000002     48.392949999999999
