18

C      47.686799999999991     47.520999999999994     48.296749999999996
C      48.468000000000004     48.759300000000010     47.707650000000001
C      47.493499999999997     47.519700000000000     49.746750000000006
C      49.126800000000003     49.711500000000001     48.519050000000007
C      47.130800000000008     46.475300000000004     47.479050000000001
C      48.478400000000008     48.730800000000002     46.240150000000000
C      48.123500000000007     48.614699999999999     50.432350000000000
C      49.036699999999996     49.626100000000008     49.944850000000002
C      47.575400000000002     46.285700000000006     46.099350000000001
C      47.918000000000006     47.626100000000008     45.526250000000005
H      46.728600000000000     46.802199999999999     50.240250000000003
H      49.390000000000001     50.420800000000000     47.764550000000000
H      46.490600000000001     45.774000000000001     47.916049999999998
H      49.016700000000000     49.468600000000009     45.675150000000002
H      47.562100000000001     48.693300000000008     51.452349999999996
H      49.509399999999999     50.248600000000010     50.736550000000008
H      47.284800000000004     45.579200000000000     45.317550000000004
H      47.865600000000001     47.368099999999998     44.547650000000004
