18

C      47.851900000000001     48.819949999999984     47.786799999999992
C      48.775500000000001     47.765349999999998     47.667400000000001
C      46.847000000000001     49.047049999999999     46.830399999999997
C      48.217900000000007     46.836349999999996     46.631200000000000
C      47.841400000000000     49.201849999999993     49.206499999999998
C      49.553000000000004     47.118650000000002     48.774400000000000
C      46.546500000000002     48.338049999999996     45.586399999999998
C      47.254300000000008     47.067149999999998     45.567999999999998
C      48.501600000000003     48.496650000000002     50.304400000000001
C      49.430699999999995     47.309550000000002     50.181700000000006
H      46.480499999999999     49.903649999999999     47.105499999999999
H      48.589900000000007     46.019350000000003     46.234200000000001
H      47.231000000000002     49.980649999999997     49.485500000000002
H      50.165399999999998     46.302350000000004     48.579499999999996
H      45.756999999999998     48.900350000000003     44.824900000000000
H      47.116999999999997     46.648749999999993     44.527900000000002
H      48.320699999999995     48.492249999999999     51.472099999999998
H      50.243000000000002     47.105750000000000     50.949900000000000
