18

C      48.410149999999994     48.688549999999992     48.134699999999995
C      47.859749999999998     47.364550000000008     47.626200000000004
C      47.524850000000001     49.775149999999996     47.937400000000004
C      46.521149999999999     47.226950000000002     47.004399999999997
C      49.813749999999999     48.844950000000011     48.699800000000003
C      48.563749999999999     46.264449999999997     48.139400000000002
C      46.415450000000000     49.572550000000007     47.080300000000001
C      45.516649999999998     48.290350000000004     46.825499999999998
C      50.349850000000004     47.538449999999997     49.170800000000007
C      49.864750000000001     46.268550000000005     48.776699999999998
H      47.668949999999995     50.801050000000004     48.379600000000003
H      46.030450000000002     46.177350000000004     46.923200000000001
H      50.297550000000001     49.878750000000011     48.610500000000002
H      48.070149999999998     45.198949999999996     47.913400000000003
H      45.968550000000000     50.609650000000002     47.054700000000004
H      44.607050000000001     48.187349999999995     46.701500000000003
H      51.392949999999999     47.164450000000002     49.298499999999997
H      50.215249999999997     45.204949999999997     48.818700000000000
