52

C      47.175899999999984     46.668999999999997     48.746099999999991
C      46.719199999999994     47.313600000000001     47.414199999999994
C      51.394900000000000     48.782200000000003     48.142600000000002
C      50.451799999999999     49.047200000000011     46.870599999999996
C      48.574700000000000     46.102400000000003     48.944499999999998
C      47.851099999999995     47.763700000000000     46.617199999999997
C      50.668299999999995     47.895800000000001     48.986399999999989
C      50.161899999999996     50.566700000000004     44.736399999999996
C      49.505099999999992     47.320000000000000     48.436999999999998
C      49.178999999999995     48.127600000000008     47.226100000000002
C      46.096200000000003     46.519199999999998     49.804899999999996
C      44.906200000000005     47.222900000000003     49.437299999999993
C      44.416099999999993     47.249499999999991     48.081699999999998
C      45.260299999999994     47.454400000000000     46.956999999999994
C      52.437099999999994     49.737199999999994     48.598500000000001
C      52.657900000000005     50.757200000000005     47.820899999999995
C      51.962600000000002     50.912299999999995     46.503599999999999
C      50.829100000000004     50.259999999999998     45.987299999999998
C      48.103500000000004     45.173700000000004     48.052799999999998
C      48.491999999999997     45.708800000000004     50.359799999999993
C      46.935700000000004     45.770200000000003     50.928299999999993
C      47.456399999999995     48.803899999999999     45.572099999999999
C      46.172599999999996     48.401299999999999     44.938099999999999
C      44.753599999999999     47.989800000000002     45.753500000000003
C      51.463199999999993     47.267400000000002     50.050600000000003
C      52.042499999999997     48.658999999999999     50.972899999999996
C      53.034799999999997     49.538400000000003     49.943399999999997
C      42.858200000000004     47.699700000000000     48.294899999999998
H      44.309199999999997     47.152999999999999     50.210899999999995
H      53.572499999999998     51.427700000000002     47.994500000000002
H      52.048200000000001     51.745500000000000     45.829599999999999
H      47.999400000000001     44.254500000000000     48.708299999999994
H      48.113300000000002     45.149900000000002     47.017499999999998
H      49.172699999999999     46.207999999999998     51.027699999999996
H      48.774799999999992     44.642500000000005     50.268699999999995
H      46.598700000000001     46.186500000000002     51.944400000000002
H      46.439100000000003     44.879399999999997     51.125699999999995
H      48.204199999999993     48.817999999999998     44.783299999999997
H      47.373299999999993     49.833400000000005     45.981999999999999
H      45.854400000000005     49.320799999999998     44.438400000000001
H      46.262200000000000     47.782000000000004     44.055599999999998
H      43.708300000000001     48.163400000000003     45.452900000000000
H      52.482599999999998     47.031900000000000     49.796099999999996
H      51.080999999999996     46.498800000000003     50.671399999999991
H      50.959399999999995     48.929399999999994     51.425500000000000
H      52.582400000000000     48.388200000000005     51.763800000000003
H      53.919000000000004     48.778800000000011     49.870399999999997
H      53.283499999999997     50.502200000000009     50.299899999999994
H      42.570299999999996     48.827400000000004     48.167900000000003
H      42.080999999999996     47.463600000000007     47.297299999999993
H      42.379699999999993     47.413200000000003     49.185100000000006
O      49.185700000000004     50.518500000000003     44.234799999999993
