18

C      48.614899999999992     48.381599999999999     47.758099999999992
C      47.199399999999997     47.931300000000007     47.749800000000000
C      49.182499999999997     49.507199999999997     48.638300000000001
C      46.194200000000002     48.774299999999997     48.276899999999998
C      49.744700000000002     47.540700000000001     47.301000000000002
C      46.958900000000000     46.774699999999996     46.857799999999997
C      48.064900000000002     50.034599999999998     49.436399999999992
C      46.688099999999999     49.622399999999999     49.326599999999999
C      49.525900000000000     46.420600000000007     46.529299999999999
C      48.115199999999994     46.073200000000000     46.310299999999998
H      50.054600000000001     49.802999999999997     48.244699999999995
H      45.147399999999998     48.527799999999999     48.204499999999996
H      50.852600000000002     48.003799999999998     47.546799999999998
H      46.070699999999995     46.416499999999999     46.649200000000000
H      48.423099999999998     50.575800000000001     50.365300000000005
H      46.102499999999999     49.832700000000003     50.127799999999993
H      50.176700000000004     45.754600000000003     46.164400000000001
H      47.519500000000001     45.424199999999999     45.634699999999995
