18

C      48.161400000000000     48.477849999999997     48.106499999999997
C      47.512499999999996     47.210450000000002     47.837400000000002
C      48.702999999999996     49.251449999999998     46.854700000000008
C      47.395900000000005     47.017350000000000     46.343500000000006
C      48.470099999999995     48.527050000000003     49.529300000000006
C      46.938400000000009     46.310949999999998     48.657599999999988
C      48.850299999999997     48.947249999999997     45.506600000000006
C      48.205300000000001     47.685250000000003     45.362099999999998
C      48.060700000000004     47.425049999999999     50.378599999999992
C      47.227899999999998     46.289850000000001     49.985499999999988
H      49.067799999999998     50.427650000000000     46.815399999999997
H      46.716299999999997     46.277450000000002     45.971699999999998
H      49.081300000000006     49.366649999999993     49.932899999999989
H      46.318000000000005     45.705249999999999     48.187699999999992
H      49.681999999999995     49.262950000000004     44.741900000000001
H      48.045400000000008     46.809249999999999     44.599900000000005
H      48.206399999999995     47.598550000000003     51.400099999999995
H      46.881999999999998     45.572350000000000     50.745400000000004
