19

C      47.790049999999994     48.985024999999993     47.582599999999999
C      48.037250000000000     47.679945000000004     48.412399999999991
C      46.696150000000003     48.951475000000002     46.642200000000003
C      46.744550000000004     46.957345000000004     48.793099999999995
C      48.938449999999996     46.970424999999999     47.420900000000003
C      48.887450000000001     47.987815000000005     49.627799999999993
C      45.704650000000001     48.062305000000002     46.969800000000006
C      45.557450000000003     47.087005000000005     47.966200000000001
C      50.228950000000005     46.825925000000005     47.922399999999996
C      50.150449999999999     47.563495000000003     49.326999999999998
H      48.732949999999995     49.446095000000007     47.534700000000001
H      46.431350000000002     49.748854999999999     45.783100000000005
H      46.653250000000000     46.413565000000006     49.764799999999994
H      48.562049999999992     46.729835000000001     46.513199999999998
H      48.532950000000000     48.616725000000002     50.216899999999995
H      44.864750000000001     48.114645000000003     46.227699999999999
H      44.810650000000003     46.251145000000001     48.039799999999985
H      51.189349999999997     46.476915000000005     47.516099999999994
H      51.043450000000000     47.578805000000003     49.864199999999997
