18

C      47.954449999999994     48.696349999999995     48.623199999999990
C      47.829850000000000     47.425150000000002     47.968100000000007
C      46.848450000000007     49.618449999999996     48.211700000000008
C      46.836050000000000     47.152950000000004     47.046900000000008
C      48.967350000000003     49.181349999999995     49.512700000000009
C      48.968550000000000     46.480450000000005     48.385100000000008
C      45.753650000000000     49.243250000000003     47.296900000000008
C      45.720850000000006     47.988450000000000     46.719800000000006
C      50.125850000000007     48.227450000000005     49.613300000000010
C      50.211850000000005     46.960949999999997     48.914000000000001
H      46.750350000000005     50.490150000000000     48.812700000000007
H      47.092149999999997     46.170550000000006     46.679299999999998
H      49.093350000000008     50.195849999999993     49.875600000000006
H      49.083850000000005     45.509850000000000     47.761400000000009
H      44.853850000000001     49.986249999999998     47.385199999999998
H      44.925350000000002     47.746849999999995     45.930099999999996
H      51.065450000000006     48.561049999999994     50.069900000000004
H      51.146149999999999     46.319350000000000     48.774799999999999
