5

C      48.134499999999996     47.950249999999990     47.957599999999992
H      48.285899999999998     47.143050000000002     47.219900000000003
H      47.126300000000001     47.642949999999999     48.405500000000004
H      48.470500000000001     48.856949999999998     47.505600000000001
H      48.873699999999999     47.483449999999998     48.780099999999997
