18

C      48.312874999999998     48.213600000000000     48.355399999999989
C      47.994515000000007     47.423200000000001     47.255299999999991
C      47.978075000000004     47.674500000000002     49.656700000000001
C      46.902635000000004     46.453600000000002     47.600099999999998
C      48.986605000000012     49.499699999999997     48.105300000000000
C      48.679265000000001     47.652200000000001     45.951799999999992
C      47.483475000000006     46.336900000000007     49.872199999999992
C      46.665285000000004     45.735900000000008     48.743399999999994
C      49.579935000000006     49.930500000000002     46.885499999999993
C      49.525175000000004     48.841900000000003     45.900399999999991
H      48.559935000000010     48.365400000000001     50.073099999999997
H      46.418455000000002     46.027999999999999     46.510300000000001
H      49.115095000000004     50.143899999999995     49.027799999999999
H      48.711135000000006     46.713100000000004     45.297699999999992
H      47.348685000000003     45.756499999999996     50.840000000000003
H      45.987065000000001     45.010200000000005     48.805599999999998
H      49.777335000000008     50.989799999999995     46.608499999999992
H      50.012934999999999     49.058000000000000     45.159999999999997
