18

C      47.762799999999991     48.879749999999994     47.943449999999999
C      47.733499999999992     47.495249999999999     48.350050000000003
C      47.561499999999995     49.561250000000001     49.303750000000001
C      48.128299999999996     46.662250000000000     49.571649999999998
C      48.070599999999999     49.269250000000000     46.510950000000001
C      48.021299999999997     46.620849999999997     47.342850000000006
C      47.468999999999994     48.897550000000010     50.583750000000002
C      47.938899999999990     47.610350000000004     50.725349999999999
C      48.327600000000004     48.368749999999999     45.511650000000010
C      48.318099999999994     46.981050000000003     45.914650000000002
H      47.057199999999995     50.438350000000000     48.871650000000010
H      48.942800000000005     46.041049999999998     49.528849999999998
H      48.214799999999997     50.381850000000000     46.196350000000002
H      48.158499999999989     45.561650000000000     47.394449999999999
H      47.367999999999995     49.545050000000003     51.415849999999999
H      48.137899999999988     46.962850000000003     51.516050000000000
H      48.751999999999995     48.483049999999999     44.483950000000000
H      48.426099999999998     46.198750000000004     45.158850000000008
