18

C      47.744899999999994     48.850984999999987     47.843919999999997
C      48.005799999999994     47.474644999999995     47.463170000000005
C      48.865499999999997     49.723994999999988     47.774820000000005
C      49.380499999999998     47.205274999999993     46.897370000000002
C      46.433999999999997     48.854084999999998     48.386630000000004
C      47.134000000000000     46.260654999999993     47.635820000000002
C      50.140299999999996     49.435974999999999     47.278930000000003
C      50.456599999999995     47.995404999999998     47.082600000000006
C      45.415300000000002     47.852614999999993     48.565040000000003
C      45.899100000000004     46.469464999999992     48.371379999999995
H      48.818299999999994     50.823435000000003     47.881759999999993
H      49.598599999999990     46.163034999999994     46.949420000000003
H      46.179199999999994     49.786175000000000     48.828320000000005
H      47.427799999999991     45.176564999999997     47.304729999999999
H      50.773099999999999     50.261524999999992     47.026670000000003
H      51.469200000000001     47.621704999999992     46.876190000000001
H      44.530799999999999     48.018174999999992     49.123809999999999
H      45.427399999999992     45.561974999999997     48.530880000000003
