45

C      47.795949999999991     48.256249999999994     48.527599999999993
C      48.222150000000006     46.827149999999996     48.307899999999997
C      45.781650000000006     46.976750000000003     52.565300000000001
C      46.547950000000007     48.702049999999993     49.360399999999998
C      47.782150000000009     46.007650000000005     49.399400000000007
C      45.349950000000000     47.948349999999998     51.607000000000006
C      46.140949999999997     47.697150000000001     50.333499999999994
C      46.874550000000006     46.444949999999999     50.498799999999996
C      47.912550000000003     49.595350000000003     47.797199999999997
C      49.080950000000009     47.245049999999999     44.556199999999997
C      48.964649999999999     47.004749999999994     45.997799999999998
C      49.176549999999999     48.421450000000000     45.598999999999997
C      47.478550000000006     50.969950000000004     48.148799999999994
C      47.711250000000000     51.825349999999993     46.973900000000000
C      48.339949999999995     50.959150000000001     45.979799999999997
C      48.546349999999997     49.648050000000005     46.478899999999996
C      46.280149999999999     51.224849999999996     48.993500000000004
C      45.971550000000001     49.979350000000004     49.650199999999991
C      49.548250000000003     48.569049999999997     44.167299999999997
C      49.533650000000002     49.478149999999992     42.893899999999995
C      49.364250000000006     50.861950000000000     42.931500000000000
C      48.817950000000003     46.134750000000004     47.201200000000000
C      48.279850000000003     44.557650000000002     49.010599999999990
C      49.135250000000006     44.745749999999994     47.689000000000000
C      50.609850000000002     44.614049999999999     47.904899999999998
C      48.941250000000004     43.461149999999996     46.696999999999996
C      45.493450000000003     52.555649999999993     48.922300000000000
H      45.364349999999995     46.931750000000001     53.834099999999999
H      44.452050000000007     48.774449999999995     51.583700000000000
H      46.374350000000000     45.055950000000003     52.387200000000000
H      47.235850000000006     52.774449999999995     46.648399999999995
H      48.405449999999995     51.207850000000001     45.029799999999994
H      45.364550000000001     50.261950000000006     50.449199999999998
H      50.149750000000004     48.964449999999992     42.165900000000001
H      47.306050000000006     43.978749999999998     49.040799999999997
H      48.879049999999999     44.207550000000005     49.957400000000000
H      48.683650000000007     42.633350000000000     47.385199999999998
H      49.510349999999995     43.047750000000001     45.819299999999998
H      48.683349999999997     44.421450000000000     46.000399999999999
H      45.775749999999995     53.366650000000000     48.344499999999996
H      44.397550000000003     52.387049999999995     49.006599999999999
H      45.728749999999998     53.123150000000003     49.856299999999997
N      46.609950000000005     45.996050000000004     51.931999999999995
O      51.602449999999997     44.374649999999995     48.299900000000001
O      50.188650000000003     51.590650000000004     43.224599999999995
