18

C      47.873549999999987     47.343499999999999     47.764599999999987
C      48.288650000000004     48.479100000000003     48.634100000000004
C      46.438749999999999     46.989599999999996     47.912499999999994
C      47.236549999999994     49.350399999999993     49.074500000000000
C      48.790149999999997     46.498999999999995     47.079400000000007
C      49.699650000000005     48.838999999999999     48.570300000000003
C      45.376949999999994     47.601600000000005     48.717799999999997
C      45.900549999999996     48.830600000000004     49.223200000000006
C      50.023550000000000     46.840900000000005     46.970399999999998
C      50.514350000000007     47.914900000000003     47.908300000000011
H      46.203950000000006     45.848699999999994     47.364900000000006
H      47.542050000000003     50.362700000000004     49.587000000000003
H      48.525149999999996     45.637299999999996     46.616500000000002
H      50.011150000000001     49.835300000000004     49.007400000000004
H      44.389849999999996     47.309700000000007     48.751099999999994
H      45.197749999999999     49.589299999999994     49.662700000000001
H      51.005150000000000     46.617400000000004     46.337299999999999
H      51.610150000000004     47.721999999999994     47.945999999999998
