18

C      47.264549999999993     48.269494999999992     47.626649999999991
C      48.433450000000008     47.345709999999997     47.664550000000006
C      45.876150000000010     47.840744999999998     47.535950000000000
C      48.307350000000000     45.939534999999999     48.041550000000001
C      47.544650000000004     49.672364999999992     47.623050000000006
C      49.636350000000007     47.931325000000001     47.345050000000001
C      45.762349999999998     46.426269200000000     47.955950000000001
C      46.946750000000009     45.710135000000015     48.383850000000010
C      48.930250000000001     50.271395000000005     47.379350000000002
C      50.021050000000002     49.437455000000007     47.320350000000005
H      44.996850000000009     48.483704999999993     47.204050000000009
H      48.986550000000008     45.033135000000009     47.991550000000004
H      46.719149999999999     50.445144999999989     47.873249999999999
H      50.559250000000006     47.257143999999997     47.183250000000001
H      44.835149999999999     45.854035000000017     48.393750000000011
H      46.611850000000004     44.673234999999998     48.816749999999999
H      49.001850000000005     51.326765000000002     47.360550000000003
H      51.164850000000001     49.388084999999997     47.327150000000003
