18

C      48.785799999999995     47.688549999999992     47.415849999999992
C      47.865100000000005     48.300350000000002     48.412950000000002
C      48.470599999999997     46.465550000000000     46.862649999999995
C      46.601900000000001     47.538750000000000     48.781450000000000
C      49.687700000000000     48.673849999999995     47.003250000000001
C      48.155499999999996     49.605350000000001     49.189749999999997
C      47.398699999999998     45.641449999999999     47.330450000000006
C      46.280499999999996     46.368250000000003     48.023550000000007
C      50.044500000000006     50.055050000000001     47.571450000000006
C      49.167800000000000     50.449849999999991     48.711250000000000
H      49.078499999999998     46.685350000000000     45.981950000000005
H      45.991400000000006     48.183450000000001     49.372850000000007
H      50.470899999999993     48.185049999999997     46.306750000000001
H      47.570700000000002     49.738449999999993     50.018049999999995
H      47.069000000000003     44.621250000000003     46.775849999999998
H      45.360800000000005     46.116149999999998     47.605449999999998
H      50.639199999999995     50.608449999999998     46.824949999999994
H      49.114300000000007     51.378749999999997     49.305450000000000
