6

C      48.388399999999990     47.426049999999989     48.157099999999986
C      47.742799999999995     48.730950000000000     47.927900000000001
H      47.962599999999988     46.655650000000001     48.825799999999994
H      49.240400000000001     47.014050000000005     47.707699999999996
H      46.759599999999999     48.837550000000000     48.407299999999999
H      48.302099999999989     49.344349999999999     47.174200000000006
