18

C      47.599149999999995     47.342049999999993     47.867099999999994
C      48.130550000000007     48.777050000000003     47.771700000000003
C      48.595150000000004     46.241349999999997     48.042900000000010
C      49.551250000000003     48.805549999999997     48.161000000000008
C      46.148650000000004     47.207349999999998     48.001700000000007
C      47.279050000000005     49.935149999999993     47.781100000000002
C      49.956750000000007     46.534649999999999     47.955300000000001
C      50.554950000000005     47.872250000000008     47.998899999999999
C      45.451450000000001     48.462750000000000     47.912300000000009
C      45.858550000000001     49.821849999999998     48.123500000000000
H      48.105950000000007     45.097449999999995     47.973000000000006
H      49.523450000000004     50.018249999999995     48.063200000000002
H      45.717350000000003     46.148650000000004     47.900300000000009
H      47.579750000000004     50.902550000000005     47.860700000000001
H      50.872650000000014     45.668849999999999     47.841100000000004
H      51.635749999999994     48.150549999999996     48.160800000000002
H      44.364250000000006     48.729450000000000     48.077700000000000
H      45.191350000000007     50.768450000000001     48.228299999999997
