18

C      47.769399999999990     47.246799999999993     47.388189999999994
C      48.401299999999999     48.237100000000005     48.378099999999996
C      46.661400000000000     46.441200000000002     47.695180000000001
C      48.144300000000008     48.080000000000005     49.817410000000002
C      48.351499999999994     47.366000000000007     46.043087000000000
C      49.335199999999993     49.188799999999993     47.906840000000010
C      46.308500000000002     46.466799999999999     49.113570000000003
C      47.074300000000001     47.174500000000002     50.072560000000003
C      49.445200000000007     48.232800000000005     45.494733000000004
C      49.922399999999996     49.169400000000003     46.594580000000001
H      45.819299999999998     46.160800000000002     46.783810000000003
H      48.805000000000000     48.508099999999992     50.625270000000008
H      47.655499999999996     47.002500000000005     45.457290999999998
H      49.798600000000000     49.827700000000000     48.590380000000003
H      45.380299999999998     46.027600000000000     49.562449999999998
H      46.563299999999998     47.003599999999999     51.125250000000001
H      50.109100000000005     47.770700000000012     44.874749999999999
H      50.619700000000002     49.972400000000000     46.378940000000000
