18

C      47.411684999999991     48.584849999999996     48.021299999999989
C      48.351984999999992     47.546949999999995     48.100999999999999
C      46.596685000000001     48.994649999999993     46.869000000000000
C      48.252685000000007     46.614350000000002     46.980900000000005
C      47.321584999999999     49.433149999999998     49.157700000000006
C      49.214784999999999     47.526849999999996     49.166499999999999
C      46.744585000000001     48.147350000000003     45.764899999999997
C      47.498584999999999     46.900949999999995     45.796800000000005
C      48.266785000000006     49.483549999999994     50.299499999999995
C      49.210785000000008     48.460049999999995     50.231799999999993
H      45.888114999999999     49.911149999999992     47.002200000000002
H      48.656084999999997     45.585750000000004     46.887299999999996
H      46.417924999999997     49.926850000000002     48.784400000000005
H      50.111885000000001     46.884749999999997     49.001899999999992
H      46.044905000000000     48.213449999999995     44.906099999999995
H      47.364285000000002     46.223150000000004     44.984700000000004
H      48.460585000000002     50.414249999999996     50.874600000000001
H      49.995884999999994     48.344149999999999     51.093900000000005
