23

C      48.358099999999993     50.411699999999989     47.096599999999995
C      48.300000000000004     50.042199999999994     50.030200000000001
C      47.529500000000006     46.818399999999997     47.835099999999990
C      47.561799999999998     48.265400000000000     48.118000000000002
C      47.282900000000005     46.028499999999994     48.968700000000005
C      47.747700000000002     48.810299999999998     49.450300000000006
C      47.668300000000009     46.244699999999995     46.539999999999999
C      48.317200000000007     48.369799999999998     45.620199999999997
C      47.800000000000004     47.903499999999994     50.627699999999997
C      47.254700000000007     46.610900000000001     50.345400000000005
C      47.943100000000008     46.988999999999997     45.381100000000004
C      47.698000000000000     49.005499999999998     46.761800000000001
H      47.936000000000000     51.070300000000003     47.954200000000007
H      49.372599999999998     50.192899999999995     47.051000000000002
H      48.294400000000003     51.090900000000005     46.326700000000002
H      47.355700000000006     44.909099999999995     48.953000000000003
H      47.600700000000010     45.140599999999992     46.400300000000001
H      48.997100000000010     49.063999999999993     45.161200000000001
H      47.743100000000005     48.208799999999997     51.720700000000001
H      47.207799999999999     46.060999999999993     51.390700000000002
H      48.049200000000006     46.711599999999997     44.279299999999999
H      46.627400000000002     49.329899999999995     46.506200000000000
O      48.843600000000002     50.921499999999995     50.378999999999998
