18

C      48.129899999999992     47.554699999999997     47.403599999999997
C      48.443019999999997     48.294600000000003     48.635300000000008
C      47.382449999999999     46.319100000000006     47.523699999999998
C      48.549450000000000     47.335499999999996     49.772100000000002
C      48.190429999999999     48.509500000000003     46.115200000000002
C      48.671609999999994     49.672399999999996     48.692700000000009
C      47.487900000000003     45.388199999999998     48.590499999999999
C      48.106259999999999     45.909499999999994     49.832700000000003
C      48.167989999999996     49.922499999999999     46.410900000000005
C      48.437639999999995     50.628900000000002     47.668500000000002
H      47.089739999999999     45.606399999999994     46.635500000000000
H      48.910260000000001     47.679599999999994     50.720400000000005
H      48.162660000000010     48.071399999999997     45.147399999999998
H      48.798870000000001     50.076800000000006     49.669400000000003
H      47.486780000000003     44.228300000000004     48.601199999999999
H      48.210030000000003     45.350999999999999     50.852600000000002
H      47.669550000000001     50.326200000000000     45.589800000000004
H      48.737710000000000     51.771699999999996     47.860000000000007
