18

C      47.163200000000003     48.737249999999996     47.810649999999995
C      48.530299999999997     48.221050000000005     48.070950000000003
C      46.565399999999997     49.595649999999992     48.880949999999991
C      49.401000000000010     48.645449999999997     49.178750000000001
C      46.408700000000010     48.789550000000006     46.572449999999996
C      49.011299999999991     47.363050000000001     47.087849999999996
C      47.137100000000004     49.681849999999997     50.165349999999997
C      48.561400000000006     49.289850000000001     50.141150000000003
C      46.943600000000004     47.751949999999994     45.672149999999995
C      48.188900000000004     47.054349999999999     45.940549999999995
H      45.535700000000006     49.779650000000004     48.598949999999995
H      50.464299999999994     48.566350000000000     49.239049999999999
H      45.636800000000008     49.395749999999992     46.050750000000001
H      50.071200000000005     46.898650000000004     47.005749999999999
H      46.573999999999998     49.702550000000002     50.939249999999994
H      48.946600000000004     49.663250000000005     51.017749999999999
H      46.132700000000000     47.658249999999995     44.982250000000001
H      48.220600000000005     46.220349999999996     45.367950000000000
