18

C      48.469899999999996     47.372499999999995     47.591349999999998
C      48.277000000000001     48.657400000000003     48.291550000000001
C      48.271799999999999     46.207200000000000     48.399850000000001
C      47.701300000000003     48.794399999999996     49.668650000000007
C      48.357999999999997     47.366600000000005     46.264450000000004
C      47.604599999999998     49.768000000000001     47.496750000000006
C      47.843499999999999     46.304700000000004     49.800650000000005
C      47.525500000000001     47.544100000000000     50.367850000000004
C      47.745300000000000     48.457599999999999     45.475750000000005
C      47.514800000000001     49.838499999999996     46.017950000000006
H      48.419699999999999     45.275700000000001     48.123550000000002
H      47.735199999999999     49.593099999999993     50.375150000000005
H      48.747599999999998     46.276400000000002     45.876650000000005
H      47.252400000000002     50.676600000000008     47.898550000000000
H      47.766599999999997     45.542900000000003     50.557750000000013
H      47.337699999999998     47.511399999999995     51.493049999999997
H      48.064900000000002     48.068200000000004     44.506950000000003
H      47.787900000000000     50.724299999999999     45.374350000000007
