20

C      46.410004999999984     49.003399999999992     44.841699999999989
C      48.917715000000001     47.153700000000001     48.334199999999996
C      47.496155000000002     47.657699999999998     48.458000000000013
C      49.579014999999998     47.004300000000001     49.572000000000003
C      46.877295000000004     47.626500000000000     49.687700000000007
C      49.517915000000002     47.549199999999999     46.971800000000002
C      46.594274999999996     48.340499999999999     47.521000000000001
C      48.814414999999997     47.132800000000003     50.823200000000000
C      47.403535000000005     47.283500000000004     51.004500000000007
C      48.612814999999998     48.265799999999999     46.085900000000009
C      47.157525000000007     48.601399999999998     46.219800000000006
H      50.626514999999998     47.280699999999996     49.313300000000012
H      45.868324999999999     47.989899999999999     49.468600000000009
H      50.212414999999993     46.777500000000003     46.355100000000007
H      45.543734999999998     48.567099999999996     47.565100000000001
H      49.333214999999996     46.882500000000000     51.834599999999995
H      46.903845000000004     47.207599999999999     52.035600000000002
H      48.916315000000012     48.640599999999999     45.226800000000011
H      45.373485000000002     49.222499999999997     44.936199999999999
O      46.826705000000004     48.323000000000000     43.964399999999998
