18

C      47.858049999999992     47.386474999999990     48.220999999999989
C      47.918449999999986     48.867574999999995     47.811000000000000
C      47.525249999999993     46.193095000000000     47.453800000000001
C      47.746949999999998     49.047485000000002     46.378999999999998
C      48.336449999999992     46.811945000000001     49.552000000000000
C      48.356449999999988     49.609575000000000     48.959699999999991
C      47.385849999999998     46.392015000000001     46.072899999999997
C      47.549349999999997     47.815194999999996     45.622099999999996
C      48.230649999999990     47.756034999999990     50.635200000000005
C      48.187149999999995     49.255494999999989     50.300799999999995
H      47.854949999999995     45.235075000000002     47.896599999999999
H      47.561149999999998     50.026305000000001     46.087600000000002
H      48.277949999999997     45.803035000000001     49.484899999999989
H      48.356549999999991     50.764924999999998     48.974499999999999
H      47.663749999999993     45.401105000000001     45.362099999999998
H      47.552249999999994     47.959714999999996     44.399400000000000
H      48.205349999999996     47.312014999999995     51.600600000000000
H      48.614150000000002     50.010455000000000     51.110599999999998
