18

C      48.438649999999996     48.266849999999991     48.344799999999992
C      47.674450000000000     48.004150000000003     47.157499999999999
C      49.229149999999997     47.172849999999997     48.707099999999997
C      47.418849999999999     46.738349999999997     46.480300000000000
C      48.376049999999999     49.414250000000003     49.288100000000000
C      46.609349999999999     48.970649999999999     46.953299999999999
C      49.378949999999996     45.925249999999998     47.761899999999997
C      48.301249999999996     45.646549999999998     46.798599999999993
C      47.450049999999997     50.307650000000002     48.863699999999994
C      46.605849999999997     50.225050000000003     47.645699999999991
H      49.970849999999992     47.308349999999997     49.460399999999993
H      46.506949999999996     46.751249999999999     45.808599999999998
H      48.859349999999999     49.334550000000000     50.191400000000002
H      45.769649999999999     48.655750000000005     46.173299999999998
H      50.256549999999997     45.374850000000002     47.646199999999993
H      48.208550000000002     44.707749999999997     46.262400000000000
H      47.258749999999999     51.292250000000003     49.435000000000002
H      45.743450000000003     50.946850000000005     47.253599999999992
