18

C      47.186299999999996     47.652249999999995     47.781849999999991
C      47.805700000000002     48.602949999999993     48.684249999999999
C      47.808199999999999     46.268050000000002     47.770049999999998
C      48.479200000000006     48.033949999999990     49.785549999999994
C      46.666600000000003     48.211149999999989     46.534950000000002
C      47.724200000000010     50.006249999999994     48.647150000000003
C      48.409999999999997     45.642150000000001     49.015750000000004
C      48.586200000000005     46.612150000000000     50.057650000000002
C      46.738399999999999     49.605350000000001     46.336750000000002
C      47.180800000000005     50.482249999999993     47.394349999999996
H      47.783900000000003     45.712249999999997     46.899749999999997
H      49.055900000000008     48.642949999999999     50.405549999999998
H      46.588900000000002     47.390249999999995     45.792449999999995
H      48.018300000000011     50.551950000000005     49.491349999999990
H      48.826400000000007     44.670850000000002     49.108449999999998
H      49.493600000000001     46.373649999999998     50.662450000000000
H      46.506399999999999     49.975849999999994     45.337550000000000
H      47.729500000000002     51.329149999999998     46.774749999999997
