18

C      48.589799999999990     48.146850000000001     47.529799999999994
C      47.293199999999999     47.438749999999999     48.112499999999997
C      49.994599999999991     48.082450000000009     47.999800000000008
C      47.529299999999992     46.572850000000003     49.309500000000000
C      48.277599999999993     49.149749999999997     46.599900000000005
C      46.056500000000000     47.379149999999996     47.536799999999999
C      50.099800000000002     47.258250000000004     49.056300000000007
C      48.872599999999991     46.645449999999997     49.614800000000002
C      46.903099999999995     49.226550000000003     46.163499999999999
C      45.795999999999992     48.411150000000006     46.609700000000004
H      50.964100000000002     48.742849999999990     47.567899999999995
H      46.675799999999995     46.046750000000003     49.930900000000008
H      49.012900000000002     49.618049999999997     46.261499999999998
H      45.402000000000001     46.491550000000004     47.921899999999994
H      51.155299999999997     47.092849999999999     49.823200000000000
H      49.166100000000000     46.093249999999998     50.475300000000004
H      46.713499999999996     49.953249999999997     45.524699999999996
H      44.844700000000003     48.438350000000000     46.163200000000003
