18

C      47.829269999999994     47.352799999999988     48.620649999999998
C      47.644550000000002     48.082400000000000     47.529250000000005
C      48.821170000000002     46.453700000000005     48.718349999999987
C      48.440660000000001     47.690199999999997     46.289950000000005
C      47.171599999999998     47.822499999999998     49.798950000000005
C      46.995779999999996     49.373799999999996     47.358850000000004
C      49.564869999999999     45.918699999999994     47.604849999999999
C      49.233979999999995     46.514900000000004     46.331149999999994
C      46.384569999999997     49.032100000000007     49.713549999999998
C      46.220279999999995     49.863099999999996     48.468450000000004
H      49.001919999999991     46.257899999999999     49.911249999999995
H      48.533250000000002     48.235300000000002     45.506749999999997
H      47.421659999999996     47.249599999999994     50.717849999999999
H      46.986799999999995     49.817000000000000     46.374049999999997
H      50.247419999999998     45.096499999999999     47.630849999999995
H      49.432130000000001     46.132600000000004     45.282150000000001
H      45.888329999999996     49.283700000000003     50.501350000000002
H      45.752580000000002     50.903500000000001     48.559349999999995
