18

C      47.136499999999991     48.060599999999994     48.476200000000006
C      48.356699999999989     47.423999999999999     48.997000000000000
C      46.769099999999995     47.808399999999999     47.042300000000012
C      48.662399999999991     46.036499999999997     48.583600000000004
C      47.034099999999995     49.450600000000001     49.120000000000005
C      49.387400000000000     48.388399999999997     49.565000000000012
C      47.261099999999985     46.620200000000004     46.533900000000003
C      48.212500000000006     45.610400000000006     47.144000000000005
C      47.916699999999999     50.328499999999998     49.679000000000002
C      49.305400000000006     49.833199999999998     49.683000000000007
H      45.813800000000001     48.111600000000003     46.570100000000011
H      49.563099999999999     45.491199999999999     48.928700000000006
H      46.185599999999994     49.957900000000002     48.833200000000005
H      50.138199999999998     47.562900000000006     49.392400000000009
H      47.103599999999993     45.987699999999997     45.734800000000007
H      48.442300000000003     44.727499999999999     46.726700000000008
H      47.744199999999992     51.272500000000001     50.265199999999993
H      50.186199999999999     50.303600000000010     50.206199999999995
