35

C      47.266949999999994     47.614284999999988     47.574380999999988
C      48.117249999999991     46.452484999999996     46.938859999999998
C      48.545850000000009     44.182185000000004     49.278929999999995
C      47.360350000000004     46.054185000000004     47.938838999999994
C      47.254350000000002     44.633084999999994     48.597310000000000
C      49.062549999999995     45.985984999999999     46.010359999999999
C      50.001150000000003     45.113084999999998     46.626359999999984
C      46.157449999999997     44.920784999999995     49.670629999999996
C      45.919649999999997     43.781485000000004     48.849079999999994
C      49.070850000000000     51.125685000000004     48.825379999999988
C      48.498350000000009     49.951184999999995     48.005484999999993
C      48.562450000000005     51.336055000000009     50.118269999999988
C      48.016849999999998     48.653284999999997     48.611479999999993
C      50.148049999999998     52.065444999999997     48.374099999999991
C      48.974950000000000     49.945085000000006     46.629759999999990
C      47.345149999999997     50.426430000000011     50.249999999999993
C      47.313049999999997     49.053285000000002     49.801799999999993
C      50.576450000000001     52.018895000000015     46.991359999999993
C      49.981349999999999     50.869907000000005     46.315060000000010
H      46.469349999999999     47.945385000000002     47.059660000000001
H      48.766750000000009     46.293485000000004     44.933260000000011
H      46.574150000000003     44.734984999999995     50.713739999999994
H      45.573949999999996     45.882684999999995     49.519319999999986
H      44.905349999999999     43.519684999999996     48.499249999999982
H      46.409849999999999     42.942785000000001     49.383369999999992
H      48.760849999999998     52.031504999999996     50.742639999999994
H      49.100550000000005     48.223884999999996     48.803479999999986
H      50.280750000000005     53.057214999999999     48.837409999999998
H      48.593950000000000     49.301085000000000     45.916260000000008
H      46.776350000000001     50.769369000000005     51.066739999999989
H      46.446950000000001     48.453485000000001     50.022129999999983
H      51.094650000000001     52.844454999999996     46.514560000000003
H      50.137749999999997     50.875253000000015     45.301259999999992
O      50.820050000000002     44.738585000000000     47.281860000000002
O      49.499249999999996     43.895785000000004     49.793770000000002
