18

C      47.868399999999994     47.295499999999997     47.274799999999999
C      47.450399999999995     47.754600000000003     48.535700000000006
C      48.441800000000008     46.041200000000003     47.404600000000002
C      47.559000000000005     47.050600000000003     49.904700000000005
C      48.114799999999995     48.201300000000003     46.194199999999995
C      46.765099999999997     49.070400000000006     48.485299999999995
C      48.956499999999998     45.548900000000003     48.581299999999999
C      48.653399999999998     46.103400000000008     49.965900000000005
C      47.482300000000002     49.436900000000009     46.167299999999997
C      46.875899999999994     50.000100000000003     47.435500000000005
H      49.171500000000002     45.832600000000006     46.608800000000002
H      46.837499999999999     47.274300000000004     50.676900000000003
H      48.772900000000000     47.932500000000005     45.161200000000008
H      46.603200000000008     49.440500000000000     49.366200000000006
H      49.804200000000002     45.068600000000004     48.522199999999998
H      49.079000000000001     45.804400000000008     50.838799999999992
H      47.987699999999997     50.143600000000006     45.536100000000005
H      46.195799999999998     50.931399999999996     47.410799999999995
