18

C      47.584014999999994     47.774099999999990     47.470099999999988
C      48.785315000000004     48.611800000000002     47.886200000000002
C      46.152014999999999     48.150000000000006     47.829600000000013
C      48.300715000000004     49.756399999999999     48.697500000000005
C      47.582214999999998     46.427300000000002     47.025199999999998
C      50.118915000000008     47.881000000000000     48.181100000000001
C      45.954315000000001     49.455100000000002     48.007000000000005
C      47.069115000000004     50.414500000000004     48.183300000000003
C      48.833514999999998     45.844799999999992     47.365499999999997
C      49.933114999999994     46.536599999999993     47.937700000000007
H      45.362214999999999     47.493899999999996     47.778999999999996
H      49.161115000000002     50.333100000000002     49.195300000000003
H      46.639015000000001     45.613900000000001     46.804699999999997
H      50.989415000000001     48.326700000000002     48.647000000000006
H      45.010584999999999     50.067200000000000     47.820099999999996
H      46.814615000000003     51.402699999999996     48.067599999999999
H      49.152014999999999     44.597300000000004     47.357799999999997
H      50.785914999999996     45.938100000000006     48.006000000000000
