66

C      49.443909999999988     46.299600000000005     50.597599999999986
C      50.478609999999996     46.031900000000007     49.535900000000005
C      43.532962999999995     50.398700000000005     46.170200000000001
C      49.634389999999996     47.724299999999999     43.817100000000003
C      48.226679999999995     46.755000000000010     49.931900000000006
C      43.807639999999999     50.072700000000012     44.753200000000000
C      48.408579999999994     48.315300000000008     43.558799999999998
C      50.168119999999995     46.208200000000005     48.049699999999994
C      49.480879999999999     46.872100000000003     45.072399999999995
C      46.032199999999996     49.017400000000009     43.937400000000004
C      46.513259999999995     47.468900000000005     48.031799999999997
C      44.944769999999998     49.115800000000007     44.923799999999993
C      47.739799999999995     46.856400000000008     48.560499999999998
C      47.271679999999996     48.309600000000003     44.399999999999999
C      48.895370000000000     46.959100000000007     47.709399999999995
C      44.815019999999997     48.241700000000009     46.207400000000000
C      48.638639999999995     47.181200000000004     46.202899999999993
C      46.192019999999999     47.947299999999998     46.733299999999993
C      47.379249999999999     47.948500000000010     45.910999999999994
C      50.897889999999997     45.878300000000010     46.849499999999999
C      50.594460000000005     46.033100000000005     45.363400000000006
C      49.411809999999996     45.539000000000001     51.877599999999994
C      50.885100000000001     45.397300000000001     52.323900000000002
C      51.904090000000004     45.069000000000003     51.281699999999994
C      51.722169999999998     45.307800000000000     49.809400000000004
C      52.501979999999996     44.889700000000005     48.685399999999994
C      52.101989999999994     45.199400000000011     47.382500000000000
C      46.903469999999999     46.817900000000009     50.892999999999994
C      47.109069999999996     46.445300000000003     52.445199999999993
C      48.438219999999994     46.135200000000012     52.878300000000003
C      50.870059999999995     47.617900000000006     42.874699999999997
C      51.475869999999993     46.141100000000009     43.030200000000001
C      51.815109999999997     45.898300000000006     44.466199999999994
C      51.427630000000001     44.949200000000005     53.536300000000004
C      43.340624999999996     50.817100000000011     43.463199999999993
C      43.412025000000000     49.580500000000001     42.358399999999996
H      49.050609999999999     44.580500000000001     51.541000000000004
H      43.080157000000000     51.398600000000002     46.657299999999999
H      43.960609999999996     49.805100000000010     48.212100000000000
H      46.279100000000000     49.864600000000010     43.380299999999998
H      45.856569999999998     47.530700000000010     48.934699999999999
H      52.886100000000006     44.609600000000000     51.436799999999998
H      53.548799999999993     44.398099999999999     48.917099999999998
H      52.817900000000002     44.919499999999999     46.573399999999999
H      46.354119999999995     47.711900000000000     51.004200000000004
H      46.113839999999996     46.122500000000002     50.483799999999995
H      46.433159999999994     45.651900000000012     52.690499999999993
H      46.834219999999995     47.392000000000010     52.796500000000002
H      48.180850000000000     45.501400000000004     53.797599999999996
H      48.685069999999996     47.215900000000005     53.048499999999997
H      50.834039999999995     47.941100000000006     41.785199999999996
H      51.644569999999995     48.443700000000007     43.016600000000004
H      52.623669999999997     46.371200000000002     42.374599999999994
H      50.915619999999997     45.182500000000005     42.548399999999994
H      52.565069999999999     46.213000000000008     45.007699999999993
H      52.116040000000005     44.905200000000008     44.473099999999995
H      42.451200000000007     51.359999999999999     43.538300000000000
H      44.178139999999999     51.601900000000001     43.060300000000005
H      43.050380999999994     48.578900000000004     42.918500000000002
H      42.663999999999994     49.868400000000008     41.553800000000003
H      44.342149999999997     49.129700000000000     41.891200000000005
H      43.291464999999995     47.456299999999999     44.769799999999996
H      48.807979999999993     48.924300000000002     42.602499999999999
N      44.152459999999998     49.538499999999999     46.990500000000004
O      51.782029999999999     44.411900000000003     54.446199999999997
O      43.945459999999997     47.141500000000008     45.630199999999995
