6

C      48.806749999999994     47.975349999999992     48.066049999999990
C      47.464049999999993     48.225749999999998     48.159149999999997
H      49.277250000000002     48.908349999999992     47.691150000000000
H      49.214750000000002     46.868850000000002     48.273049999999991
H      46.722749999999998     47.570550000000004     48.354550000000003
H      47.164650000000002     49.131149999999998     47.645449999999997
