5

C      47.629799999999989     48.431249999999991     48.234449999999995
C      48.647599999999997     47.573850000000000     48.016249999999999
H      48.622099999999996     47.147050000000000     47.046350000000004
H      49.189000000000000     47.163750000000000     48.935450000000003
O      46.811000000000000     48.852950000000000     48.953649999999996
