5

C      47.730100000000000     48.066999999999993     47.940349999999995
H      47.429699999999997     47.684100000000001     46.932949999999998
H      48.045900000000003     48.876800000000003     47.290050000000001
H      47.894099999999995     48.400700000000001     49.067050000000002
H      48.570300000000003     47.123199999999997     48.329349999999998
