18

C      48.278029999999987     48.061399999999985     48.573549999999990
C      48.057119999999998     47.831800000000001     47.090550000000007
C      47.892700000000005     49.077863000000001     49.349450000000004
C      47.240319999999997     48.876771000000005     46.569749999999999
C      49.240910000000014     46.970199999999991     49.078350000000000
C      48.244230000000002     46.494499999999988     46.571550000000002
C      47.157269999999997     50.077230000000000     48.616550000000004
C      46.845479999999995     50.143590000000003     47.226750000000010
C      49.606480000000005     45.601599999999991     48.571750000000009
C      49.099130000000002     45.514600000000002     47.118250000000003
H      48.043430000000001     49.235126999999991     50.515450000000001
H      46.781769999999995     48.388250999999997     45.484549999999999
H      49.446880000000007     47.519899999999993     49.970950000000002
H      48.031050000000008     45.976699999999994     45.595950000000002
H      47.173929999999999     51.251500000000007     48.820250000000001
H      46.139709999999994     50.849150000000002     46.968050000000005
H      49.860290000000006     44.748499999999993     49.209550000000007
H      49.444429999999997     44.798099999999991     46.605249999999998
