18

C      48.625699999999988     47.828449999999997     47.723849999999999
C      47.500399999999999     47.936850000000007     48.632350000000002
C      48.798699999999997     49.065750000000001     46.849249999999998
C      46.858099999999993     49.073750000000004     49.064649999999986
C      49.432099999999991     46.632550000000002     47.627650000000003
C      46.883199999999988     46.805450000000008     49.263050000000007
C      48.145599999999988     50.284750000000003     47.326549999999997
C      47.129199999999997     50.243650000000002     48.453549999999993
C      48.925899999999999     45.582150000000006     48.523250000000004
C      47.708999999999989     45.599650000000004     49.355549999999994
H      49.356199999999987     49.266250000000007     45.951049999999995
H      46.268099999999990     48.773450000000011     50.007249999999999
H      49.836900000000000     46.422350000000002     46.567350000000005
H      46.163100000000000     46.792250000000003     50.035950000000000
H      48.289999999999992     51.334649999999996     47.197249999999997
H      46.903899999999993     51.084650000000003     48.897049999999993
H      49.546799999999990     44.692850000000007     48.586749999999995
H      47.462599999999995     44.665350000000004     50.048950000000005
