18

C      48.660299999999992     47.600549999999991     48.622449999999986
C      47.231699999999996     47.166150000000002     48.389649999999989
C      48.762999999999998     48.720349999999996     49.685649999999995
C      46.066899999999997     47.831150000000001     49.126649999999998
C      49.733799999999995     47.321849999999998     47.661649999999995
C      46.997799999999998     46.464550000000003     47.129449999999991
C      47.600400000000000     49.539149999999999     49.899249999999995
C      46.203499999999998     49.156250000000000     49.693649999999991
C      49.431000000000004     46.355350000000001     46.633049999999997
C      48.081899999999997     46.237749999999998     46.294950000000000
H      49.619700000000002     48.915750000000003     50.165250000000000
H      45.109900000000003     47.322150000000001     49.349349999999987
H      50.890099999999997     47.445650000000001     47.976549999999989
H      46.136400000000002     45.984949999999998     46.780949999999990
H      47.713999999999999     50.435050000000004     50.484350000000006
H      45.474299999999999     49.825050000000005     50.115650000000002
H      50.334600000000002     45.822850000000003     46.219249999999988
H      47.713100000000004     45.564949999999996     45.515649999999994
