17

C      47.994464999999991     47.562699999999992     48.859749999999991
C      47.889215000000007     48.393799999999999     47.674650000000000
C      48.915125000000003     46.426600000000008     46.590449999999997
C      48.791695000000004     47.439800000000005     47.662050000000001
C      47.998015000000009     48.197500000000005     50.239550000000001
C      47.444405000000003     49.906000000000006     47.682450000000003
C      47.904605000000004     45.508000000000010     46.309249999999999
C      46.818105000000003     44.802099999999996     46.079250000000002
C      47.641385000000000     49.631200000000007     50.274549999999998
C      47.487165000000005     50.331800000000001     49.008949999999992
H      49.885535000000004     46.594099999999997     46.029650000000004
H      48.502295000000004     47.617800000000003     50.946150000000003
H      46.867905000000007     50.442000000000007     46.866849999999999
H      46.114464999999996     44.606600000000000     46.968150000000001
H      46.216965000000002     44.956500000000005     45.053849999999997
H      47.992654999999999     50.343400000000003     50.929850000000009
H      47.131385000000009     51.393400000000000     49.093749999999993
