22

C      50.315799999999996     47.184139499999993     49.789399999999986
C      48.328000000000003     48.211549499999997     48.762499999999996
C      47.817700000000002     48.310999499999994     47.364699999999992
C      49.791399999999996     48.301749500000000     48.987400000000001
C      48.720600000000005     48.413599500000004     46.235799999999990
C      47.221900000000005     48.088299499999998     49.730100000000000
C      46.321200000000005     48.694789499999999     47.239699999999992
C      50.607100000000003     48.900619500000005     47.916300000000000
C      50.007599999999996     48.761129499999996     46.623899999999999
C      45.947999999999993     48.200349500000002     49.445099999999989
C      45.367099999999994     48.563659500000000     48.136899999999990
H      50.720100000000002     46.802079499999998     48.885399999999997
H      51.168799999999990     47.275899499999994     50.404399999999988
H      49.630600000000001     46.554620499999999     50.390899999999995
H      50.061300000000003     48.946969499999994     49.830300000000001
H      48.433800000000005     48.325979500000003     45.174900000000001
H      47.428100000000001     48.064399500000007     50.825099999999999
H      46.188199999999995     49.159179500000000     46.257199999999990
H      51.658699999999996     49.445379500000001     48.058699999999995
H      50.588600000000000     49.092999500000005     45.743999999999993
H      45.136299999999991     48.225699499999997     50.085999999999991
H      44.341300000000004     48.965009500000001     48.186900000000001
