18

C      48.131149999999998     48.659299999999988     47.733949999999993
C      47.839850000000006     47.192100000000003     48.035650000000004
C      49.449250000000006     48.611600000000003     47.155550000000005
C      48.463450000000009     45.846200000000003     47.682249999999996
C      47.766950000000008     49.964700000000001     48.313249999999996
C      46.554050000000004     47.002699999999997     48.595349999999996
C      50.088950000000004     47.344000000000001     46.917649999999995
C      49.734250000000003     45.945200000000007     46.948549999999997
C      46.676950000000005     49.506300000000003     49.074249999999992
C      46.009950000000003     48.226000000000006     49.199849999999998
H      50.070050000000009     49.461099999999995     47.160650000000004
H      47.979250000000008     44.997999999999998     47.754749999999987
H      48.311550000000004     51.002000000000002     48.478949999999998
H      46.144250000000000     46.068999999999996     48.751649999999998
H      51.019250000000000     47.434000000000005     46.260750000000002
H      50.403850000000006     45.238099999999996     46.563549999999992
H      46.340350000000001     50.174900000000001     49.579250000000002
H      44.980750000000000     48.120300000000007     49.739249999999998
