6

C      47.742149999999995     47.984099999999998     47.373699999999992
C      47.846950000000007     48.063500000000005     48.688800000000001
H      48.257850000000005     48.710899999999995     46.667299999999997
H      47.817149999999998     46.894099999999995     46.894599999999997
H      47.807350000000014     47.150199999999998     49.332700000000003
H      47.986550000000008     49.105900000000005     49.197299999999998
