18

C      48.419649999999990     48.425399999999996     48.348300000000002
C      47.363750000000003     47.771499999999996     47.470900000000007
C      49.662550000000003     48.521900000000009     47.599100000000007
C      47.474950000000000     47.593100000000000     46.147000000000006
C      48.065049999999992     48.278500000000001     49.794900000000005
C      46.107049999999994     47.930500000000002     48.315300000000008
C      49.826950000000004     48.055600000000005     46.232100000000010
C      48.812449999999991     47.525700000000008     45.543700000000008
C      47.201850000000000     47.393000000000008     50.453900000000012
C      45.915550000000003     47.447200000000002     49.639900000000011
H      50.437949999999994     49.077700000000000     48.368200000000009
H      46.559949999999994     47.300500000000007     45.556500000000007
H      48.934350000000002     48.598599999999998     50.408700000000003
H      45.228649999999995     48.190000000000005     47.888800000000010
H      50.796950000000002     48.012700000000002     45.713700000000010
H      48.946549999999995     47.388300000000008     44.480900000000005
H      47.102449999999997     47.017400000000002     51.519099999999995
H      45.203049999999998     46.922300000000000     50.114300000000000
