18

C      48.391399999999990     48.340999999999994     48.895099999999992
C      47.961800000000004     48.775399999999998     47.413299999999992
C      47.278600000000004     47.756700000000002     49.655099999999990
C      46.473300000000002     48.779199999999996     47.233599999999996
C      49.758999999999993     48.300000000000004     49.363299999999995
C      48.891699999999993     49.074599999999997     46.475099999999998
C      45.909299999999995     47.368800000000000     49.179400000000001
C      45.612000000000002     48.081099999999999     48.045400000000001
C      50.606699999999996     48.810499999999998     48.318799999999996
C      50.323500000000003     49.002800000000001     46.876199999999997
H      47.395900000000005     47.038699999999999     50.496200000000002
H      45.796900000000001     49.132899999999999     46.519199999999998
H      49.839499999999994     48.111600000000003     50.414199999999994
H      48.757299999999994     49.329100000000004     45.503799999999998
H      45.254100000000001     46.670899999999996     49.590999999999994
H      44.417600000000000     47.987900000000003     47.595299999999995
H      51.582400000000000     48.956700000000005     48.600600000000000
H      51.191600000000001     49.323599999999992     46.337299999999999
