18

C      47.458749999999988     48.803349999999988     47.901899999999991
C      48.101649999999992     47.331649999999996     47.784099999999995
C      47.339849999999998     48.900250000000000     49.430499999999995
C      47.938949999999991     46.208149999999996     48.709999999999994
C      47.511949999999999     49.670649999999995     46.868600000000001
C      48.646249999999995     46.968649999999997     46.534899999999993
C      47.248849999999990     47.773649999999996     50.327799999999996
C      47.930149999999998     46.505549999999999     50.108000000000004
C      48.278750000000002     49.249749999999992     45.655099999999997
C      48.552350000000004     47.883249999999997     45.428500000000000
H      47.033149999999992     49.758949999999999     49.851100000000002
H      48.370350000000002     45.225449999999995     48.567799999999991
H      47.428849999999997     50.774550000000005     46.958699999999993
H      48.949349999999995     45.871349999999993     46.303699999999992
H      46.959450000000004     47.786549999999991     51.501700000000000
H      48.227350000000001     45.700849999999996     50.798900000000003
H      48.563549999999992     49.763649999999998     44.813400000000001
H      49.040549999999996     47.352549999999994     44.498300000000000
