5

C      47.767149999999994     47.311049999999994     48.682849999999988
C      49.070850000000007     47.809850000000004     48.507950000000001
H      48.956550000000007     48.024650000000001     47.281050000000000
H      49.320250000000001     48.911449999999995     48.718950000000000
O      46.679749999999999     47.088550000000005     48.646549999999998
