9

C      47.912499999999987     49.178949999999993     47.697599999999994
C      47.953199999999995     47.766349999999996     47.413599999999995
C      47.752799999999993     46.941249999999997     48.731499999999990
H      48.070300000000003     49.952950000000001     46.999400000000001
H      47.608300000000000     49.653449999999999     48.698699999999995
H      48.422600000000003     47.744749999999996     46.414200000000001
H      47.116100000000003     46.047049999999999     48.617299999999993
H      47.195400000000006     47.321149999999996     49.585799999999999
H      48.883899999999997     46.683650000000000     48.945699999999995
