38

C      46.414599999999993     46.997249999999994     48.472199999999994
C      45.582599999999992     45.776549999999993     48.446100000000001
C      44.958400000000005     46.570249999999994     52.731099999999998
C      47.155499999999996     47.211549999999995     49.729900000000001
C      45.251100000000001     45.508149999999993     49.963499999999996
C      46.043799999999997     46.911250000000003     51.963800000000006
C      46.064599999999992     46.484649999999995     50.528499999999994
C      44.176499999999997     44.991049999999994     50.939499999999995
C      46.424100000000003     47.626150000000003     47.124400000000001
C      45.780200000000001     46.742049999999999     46.055900000000001
C      45.139800000000001     45.554949999999998     46.240899999999996
C      44.864100000000001     44.947150000000001     47.542999999999999
C      46.931499999999993     49.652549999999998     45.658699999999996
C      46.469199999999994     48.771650000000001     44.447800000000001
C      47.362900000000003     51.080350000000003     45.517899999999997
C      45.839300000000001     47.465849999999996     44.781599999999997
C      46.817599999999992     48.999450000000003     46.856400000000001
C      47.063399999999994     48.982449999999993     43.169200000000004
C      48.979399999999991     48.972749999999998     49.450099999999999
H      50.813799999999993     49.795549999999999     50.560699999999997
H      48.499599999999994     47.986250000000005     51.258600000000001
H      46.906699999999994     47.711450000000006     52.283200000000001
H      51.201699999999995     48.296950000000002     52.047799999999995
H      52.770000000000003     49.527549999999998     51.327700000000000
H      44.797899999999991     46.935849999999995     53.917299999999997
H      44.556999999999995     45.080750000000002     45.374099999999999
H      44.138900000000000     44.114650000000005     47.965400000000002
H      45.266799999999996     46.843049999999998     44.032400000000003
H      47.364100000000001     49.503350000000005     47.764700000000005
H      43.229999999999997     45.186249999999994     53.049900000000001
H      52.118500000000004     48.272550000000003     50.309300000000000
N      51.845700000000001     48.918349999999997     51.113000000000000
N      43.905200000000001     45.706650000000003     52.344499999999996
N      48.176499999999997     48.046349999999997     50.073599999999999
O      46.980499999999999     49.051049999999996     42.082700000000003
O      49.896899999999995     49.660149999999994     49.373800000000003
O      47.432799999999993     52.179949999999998     45.635199999999998
O      44.063700000000004     43.820050000000002     50.588799999999992
