18

C      48.383499999999991     48.199149999999989     47.194899999999990
C      47.398699999999998     48.607450000000000     48.279299999999999
C      47.846899999999998     47.231650000000002     46.271099999999997
C      45.998399999999997     48.388549999999995     48.312000000000005
C      49.827599999999997     48.565950000000001     46.856200000000001
C      48.266499999999994     49.190649999999991     49.468200000000003
C      46.493799999999993     46.761150000000001     46.363900000000001
C      45.577900000000000     47.447450000000003     47.278699999999994
C      50.411699999999996     49.363950000000003     48.005299999999998
C      49.531400000000005     49.502549999999999     49.230899999999998
H      48.564799999999991     46.738450000000000     45.528100000000002
H      45.439599999999999     48.703049999999990     49.137200000000000
H      50.079599999999999     48.559750000000008     45.798099999999998
H      47.952699999999993     49.563950000000006     50.471899999999998
H      46.147999999999996     45.982749999999996     45.567799999999998
H      44.559899999999999     47.243949999999998     46.897500000000001
H      51.440100000000001     48.753750000000011     47.575800000000001
H      50.020899999999997     50.017250000000004     50.114100000000001
