21

C      44.859669999999994     48.830449999999992     47.518499999999996
C      48.710702700000006     47.164850000000001     47.220180000000006
C      48.245070000000005     47.602350000000001     48.612650000000002
C      50.048960000000001     46.806349999999995     46.928660000000008
C      49.253099999999996     47.447249999999997     49.677920000000000
C      47.941470000000002     47.398949999999999     46.062660000000008
C      46.739770000000000     47.716149999999999     48.689610000000002
C      51.082610000000010     47.022549999999995     47.895550000000007
C      50.698659999999997     47.406949999999995     49.315360000000005
C      46.483970000000006     47.487650000000002     46.021680000000003
C      46.150470000000006     47.974549999999994     47.338250000000002
H      44.130869999999994     49.510649999999998     46.643950000000004
H      50.497000000000007     46.489350000000002     46.110580000000006
H      49.003918000000006     47.276049999999998     50.812359999999998
H      48.544069999999998     47.173249999999996     45.208250000000007
H      46.517469999999996     48.078749999999999     49.762680000000003
H      52.030130000000007     46.576549999999997     47.499160000000003
H      51.208570000000009     47.084249999999997     50.224930000000001
H      45.826770000000003     47.758650000000003     45.187640000000002
H      45.017370000000007     49.179050000000004     48.510360000000006
H      43.969869999999993     48.230949999999993     47.690380000000005
