35

C      47.345149999999990     47.338849999999994     50.720450000000000
C      47.004849999999998     46.076849999999993     50.140450000000008
C      46.366250000000001     48.033450000000002     51.443050000000007
C      45.624949999999991     45.633150000000001     50.613550000000011
C      48.885749999999994     47.399850000000001     50.767050000000005
C      47.870349999999995     44.948149999999998     49.473950000000009
C      44.946649999999998     47.924049999999994     51.430150000000005
C      44.531649999999992     46.725449999999995     51.037650000000006
C      49.528549999999989     46.078450000000004     51.048650000000002
C      49.181149999999995     45.150949999999995     50.053550000000008
C      50.916350000000001     49.202050000000000     47.704550000000005
C      50.199649999999998     48.688549999999992     46.541450000000005
C      50.454549999999990     48.902950000000004     49.113650000000007
C      49.051949999999998     47.752849999999995     46.903750000000009
C      51.789249999999996     50.305549999999997     47.314350000000005
C      50.423949999999998     48.995049999999992     45.053950000000007
C      49.512149999999998     47.900849999999991     49.462050000000005
C      48.858449999999998     47.331649999999996     48.265950000000011
C      51.981349999999999     50.875349999999997     46.048850000000009
C      51.291249999999998     50.206749999999985     44.943150000000010
H      46.822649999999996     48.968849999999989     52.072949999999999
H      45.444249999999997     44.591049999999996     51.070250000000009
H      48.990749999999998     47.969649999999987     51.649650000000001
H      47.404249999999998     44.059950000000001     49.174950000000003
H      44.334649999999996     48.696849999999998     51.892250000000004
H      43.549050000000001     46.427250000000001     50.826150000000005
H      50.395549999999993     46.046350000000004     51.834750000000007
H      49.856149999999992     44.257549999999995     49.998850000000004
H      51.045549999999999     49.676449999999988     49.724450000000004
H      48.229949999999995     47.619850000000000     46.117250000000006
H      52.391050000000000     50.679549999999992     48.158650000000002
H      50.706349999999993     48.240349999999992     44.348650000000006
H      48.288449999999997     46.252049999999997     48.249350000000007
H      52.450949999999999     51.940049999999999     46.230750000000008
H      51.628049999999995     50.472949999999997     43.927050000000001
