18

C      47.263849999999991     47.867349999999995     47.812649999999991
C      48.581949999999999     47.727550000000001     48.557150000000007
C      46.256049999999995     48.897349999999989     48.206150000000008
C      48.861550000000001     48.633949999999999     49.687250000000006
C      46.997149999999998     47.213549999999998     46.466250000000002
C      49.610250000000001     46.868850000000002     47.994550000000004
C      46.591450000000002     49.543149999999997     49.381750000000011
C      47.793550000000003     49.380349999999993     50.164749999999998
C      47.902250000000002     46.371049999999997     45.916049999999998
C      49.188750000000006     46.375850000000000     46.652550000000005
H      45.350249999999996     48.868750000000006     47.597750000000005
H      49.740549999999999     48.594349999999991     50.520449999999997
H      46.226350000000004     47.444449999999996     45.781250000000000
H      50.649750000000004     47.091049999999996     48.180850000000007
H      45.848250000000000     50.192750000000004     49.710550000000012
H      47.841249999999995     50.066449999999996     51.046750000000003
H      47.741149999999998     45.912749999999996     44.953249999999997
H      49.841950000000004     45.807249999999996     46.040250000000000
