13

C      48.656634999999994     46.497900000000001     47.318899999999992
C      49.763484999999996     47.027600000000007     48.133499999999998
C      49.388084999999997     48.293700000000001     48.787499999999994
C      48.091484999999999     48.720700000000008     48.112699999999990
C      47.964404999999999     47.719200000000001     47.031799999999997
C      46.206235000000000     50.298400000000001     47.380200000000002
C      47.133424999999995     49.868300000000005     48.404799999999994
H      50.526885000000000     46.433800000000005     48.840299999999999
H      49.805084999999998     48.796100000000010     49.722800000000007
H      47.130015000000000     47.742100000000008     46.277199999999993
H      48.519224999999999     45.410400000000010     47.140900000000002
H      47.392715000000003     50.589599999999990     49.166300000000000
O      45.473115000000000     50.434199999999990     46.545499999999997
