7

C      48.219699999999989     48.621949999999991     47.727884999999986
H      47.003399999999999     46.829250000000002     47.906244999999991
H      47.433000000000007     49.170749999999998     47.504294999999999
H      48.894199999999998     48.495649999999998     46.759875000000001
H      48.996600000000001     49.072049999999997     48.509464999999999
H      48.566600000000008     47.232450000000000     49.240124999999999
N      48.021299999999997     47.143549999999998     48.211574999999989
