18

C      47.328799999999987     47.812809999999999     48.524549999999998
C      48.283699999999989     47.585210000000004     47.317750000000004
C      47.008099999999992     46.696110000000004     49.375249999999994
C      49.187999999999995     46.337900000000005     47.345150000000004
C      47.386199999999995     49.294210000000007     48.767449999999997
C      48.841499999999989     48.656210000000002     46.665949999999995
C      47.570899999999988     45.403070000000000     49.120949999999993
C      48.763500000000001     45.188580000000002     48.208150000000003
C      48.048399999999994     50.316310000000001     48.278350000000003
C      48.862999999999992     50.015609999999995     47.097949999999997
H      46.218499999999999     46.689809999999994     50.175250000000005
H      49.781500000000001     46.255139999999997     46.477750000000000
H      46.778799999999997     49.859309999999994     49.603149999999999
H      49.433599999999991     48.748909999999995     45.824749999999995
H      47.067599999999992     44.428690000000003     49.313149999999993
H      49.347000000000001     44.427890000000005     48.242450000000005
H      48.091899999999988     51.572109999999995     48.630049999999997
H      49.266299999999994     50.889210000000006     46.547349999999994
