18

C      47.306949999999993     48.338899999999995     48.065049999999999
C      48.625550000000004     47.700400000000002     48.265150000000013
C      47.049150000000004     49.819800000000001     47.848450000000000
C      49.596750000000000     48.849000000000004     48.214450000000006
C      46.352250000000005     47.212000000000003     47.802950000000003
C      48.983750000000001     46.325800000000001     48.405050000000010
C      48.159550000000010     50.632100000000008     47.758250000000004
C      49.428849999999997     50.192200000000000     48.046650000000007
C      46.753450000000001     45.875100000000003     47.761750000000006
C      48.054749999999999     45.217200000000005     48.374350000000000
H      46.106350000000006     50.126300000000015     47.793350000000004
H      50.502949999999998     48.313900000000004     48.560450000000010
H      45.497050000000002     47.457499999999996     47.317050000000002
H      49.910150000000002     45.862899999999996     48.631050000000009
H      48.359049999999996     51.827399999999997     47.674750000000003
H      50.081150000000008     50.963000000000008     48.356450000000002
H      46.074250000000006     45.015200000000007     47.327450000000006
H      48.305149999999998     44.172600000000003     48.682949999999998
