21

C      46.037799999999997     48.635049999999985     46.545049999999989
C      49.200100000000006     47.771799999999992     48.423949999999998
C      47.987800000000007     48.473749999999988     47.776049999999991
C      48.989600000000010     46.293312999999991     46.470350000000003
C      49.736900000000006     46.641419999999989     47.566049999999997
C      49.701300000000003     48.247269999999993     49.685049999999997
C      47.327900000000000     49.348039999999997     48.720350000000003
C      47.904400000000010     47.062439999999995     45.745550000000001
C      47.319500000000005     48.004299999999994     46.542849999999994
C      49.038800000000009     49.313109999999995     50.479849999999992
C      47.729500000000002     49.832769999999989     50.014949999999992
H      45.232900000000001     48.973639999999989     47.167049999999996
H      46.192599999999999     49.673149999999993     45.898850000000003
H      45.598900000000000     48.456329999999994     45.355650000000004
H      49.492900000000006     45.412060000000011     45.978149999999992
H      50.642000000000010     47.928599999999989     50.057549999999999
H      46.251400000000004     49.690649999999991     48.393449999999994
H      47.513000000000005     46.642899999999990     44.814850000000000
H      50.767099999999999     46.277929999999991     47.722050000000003
H      49.871000000000009     49.675569999999993     51.185150000000000
H      47.088200000000001     50.587939999999989     50.378049999999995
