48

C      48.574799999999996     48.579834999999989     48.555899999999994
C      47.339500000000008     48.136254999999991     47.796300000000002
C      46.785800000000002     44.323534999999993     46.573700000000002
C      45.322800000000008     45.181735000000003     46.428600000000003
C      49.694300000000005     46.414735000000007     48.004100000000008
C      45.777999999999999     46.361235000000022     47.233000000000004
C      46.205000000000005     45.094035000000005     45.425799999999995
C      48.418500000000002     45.936835000000002     47.537099999999995
C      47.146900000000009     46.777968399999992     47.279600000000002
C      48.582100000000004     49.942914999999999     49.064499999999995
C      47.365299999999998     50.813104999999993     49.132700000000000
C      46.148400000000002     50.274274999999989     48.553100000000001
C      46.098700000000001     48.959504999999993     47.814300000000003
C      50.864200000000004     48.205184999999986     49.635000000000005
C      51.127699999999997     49.731324999999984     49.928500000000014
C      49.936600000000006     50.536764999999988     49.497000000000014
C      49.841799999999999     47.909664999999990     48.475800000000007
C      50.099100000000000     51.998604999999998     49.113600000000005
C      50.503000000000007     45.426434999999998     49.012700000000009
C      50.411400000000008     47.559874999999991     47.061899999999994
C      52.053100000000008     47.605149999999995     47.188299999999998
C      50.178300000000000     50.501174999999989     50.963800000000006
C      43.894500000000001     44.349235000000007     46.533299999999997
H      46.567799999999998     43.263235000000009     46.601100000000002
H      45.130299999999998     47.208690999999988     47.462000000000003
H      46.167300000000004     44.643034999999998     44.417299999999997
H      47.344000000000001     51.604214999999982     49.904899999999998
H      45.083500000000008     50.669604999999990     48.522099999999995
H      45.197000000000010     48.832064999999986     47.191100000000006
H      52.413500000000006     50.030314999999987     50.033000000000001
H      51.520299999999999     45.762934999999999     49.071200000000005
H      51.014299999999999     47.522062999999989     50.366699999999994
H      50.604500000000009     51.572934999999987     48.221100000000007
H      49.086599999999997     52.736764999999991     48.977699999999999
H      51.059100000000008     52.412554999999983     49.560100000000006
H      50.378400000000006     44.352834999999999     48.525000000000006
H      50.012700000000002     45.593135000000018     49.877300000000005
H      49.847200000000008     48.200664999999987     46.368800000000007
H      49.175100000000008     43.991334999999978     46.878000000000000
H      52.762300000000003     47.949444999999997     46.301000000000002
H      52.679400000000008     48.438884999999999     47.745000000000005
H      52.171399999999998     46.855604999999997     47.894599999999997
H      50.704799999999999     51.255054999999999     51.582700000000003
H      49.117800000000010     50.244824999999992     51.342100000000002
H      43.414800000000007     43.606234999999984     47.309700000000007
H      43.237699999999997     44.314635000000010     45.585700000000003
H      43.287399999999998     44.944434999999984     46.911600000000007
N      48.302100000000003     44.695734999999999     46.961600000000004
