18

C      48.387449999999987     47.419249999999991     48.026915499999987
C      47.656150000000004     48.745250000000006     48.424515499999991
C      49.614550000000001     47.568149999999996     47.217315499999991
C      48.413149999999995     50.034349999999996     48.035615499999999
C      48.116049999999994     46.044649999999997     48.579015500000004
C      46.620249999999999     48.428850000000004     49.202946500000003
C      50.101549999999996     48.901850000000003     46.869015499999996
C      49.535249999999998     50.166750000000000     47.165615499999994
C      46.866750000000003     45.956749999999992     49.291892499999996
C      46.160950000000000     47.166850000000004     49.182225500000008
H      50.160850000000003     46.723049999999994     46.783215500000004
H      47.694150000000000     50.810949999999998     48.520715500000001
H      48.683050000000001     45.193750000000001     48.328615499999991
H      45.940449999999998     49.125149999999998     49.599499500000000
H      50.843150000000001     49.324149999999996     46.179415499999998
H      50.056450000000005     51.064150000000005     46.680015500000003
H      46.381850000000000     44.935849999999995     49.459959500000004
H      45.156849999999999     47.360250000000001     49.820584500000002
