18

C      48.647700000000000     48.316649999999989     47.654199999999989
C      47.450300000000006     47.664149999999999     47.963550000000005
C      48.386000000000003     49.816749999999999     47.575739999999996
C      46.244199999999999     48.496649999999988     48.438179999999996
C      49.858399999999996     47.579850000000000     47.714909999999996
C      47.521499999999996     46.206150000000001     48.203609999999991
C      47.268499999999996     50.520250000000004     48.091299999999997
C      46.078600000000002     49.848149999999997     48.546990000000001
C      49.965499999999999     46.081849999999996     47.810330000000000
C      48.770299999999999     45.478149999999999     48.374049999999997
H      49.221499999999999     50.418450000000000     47.043509999999998
H      45.467700000000001     47.764150000000001     48.720270000000006
H      50.519500000000001     48.337649999999996     48.092089999999999
H      46.636599999999994     45.570749999999997     48.251770000000000
H      47.407299999999999     51.677650000000000     48.293529999999997
H      45.215300000000006     50.507649999999998     48.956490000000002
H      50.784699999999994     45.465449999999997     47.556739999999998
H      48.506599999999999     44.322350000000000     48.334049999999998
