18

C      47.462249999999990     48.217699999999994     47.848450000000000
C      48.478449999999995     47.625100000000003     48.608550000000001
C      46.349849999999996     48.839100000000009     48.709350000000008
C      48.517849999999996     47.596800000000002     50.020950000000006
C      47.329949999999997     48.580099999999995     46.342549999999996
C      49.417450000000002     47.132100000000001     47.526550000000007
C      46.291150000000002     48.681200000000011     50.065750000000001
C      47.479450000000000     48.062700000000000     50.782150000000009
C      48.342449999999999     47.852000000000004     45.518750000000004
C      49.527549999999991     47.254200000000004     46.085650000000008
H      45.696550000000002     49.540500000000002     48.303450000000005
H      48.997649999999993     47.140100000000004     50.931950000000008
H      46.825249999999997     49.446500000000007     46.081849999999996
H      50.158749999999998     46.459499999999998     48.000450000000008
H      45.608750000000001     49.163800000000002     50.709449999999997
H      47.861849999999990     48.422400000000003     51.644550000000002
H      48.434649999999991     48.245600000000003     44.355449999999998
H      50.391249999999999     46.996700000000004     45.401649999999997
