18

C      48.663499999999992     48.007500000000000     47.428499999999993
C      47.368499999999997     47.955200000000005     48.368799999999993
C      48.502099999999999     47.510100000000008     45.993700000000004
C      46.063900000000004     47.987899999999996     47.767099999999999
C      49.852499999999992     48.342300000000009     47.995099999999994
C      47.747100000000003     48.233699999999999     49.780000000000001
C      47.184699999999992     47.447200000000009     45.444299999999998
C      46.001899999999992     47.725700000000003     46.383799999999994
C      49.968900000000005     48.728099999999998     49.394000000000005
C      48.971800000000002     48.442599999999999     50.443299999999994
H      49.425799999999995     47.163600000000002     45.433899999999994
H      45.105300000000000     48.019400000000005     48.326800000000006
H      50.818799999999996     48.538899999999998     47.474499999999992
H      47.022700000000000     48.096199999999996     50.624700000000004
H      47.100899999999996     47.039500000000004     44.495000000000005
H      45.051299999999998     47.603400000000008     46.100200000000001
H      50.948700000000002     48.960499999999996     49.728300000000004
H      49.089200000000005     48.423299999999998     51.504999999999995
