18

C      47.353249999999989     48.541749999999993     47.692149999999991
C      48.235550000000003     47.674029999999995     48.596449999999990
C      47.144850000000005     49.820019999999992     48.036050000000003
C      49.145049999999998     48.301769999999998     49.584450000000004
C      46.747749999999996     47.911309999999993     46.496650000000002
C      48.590249999999997     46.352309999999996     48.048349999999999
C      48.031150000000011     50.532919999999997     48.911149999999992
C      48.987850000000009     49.744520000000001     49.647250000000000
C      46.810749999999999     46.441749999999999     46.561550000000004
C      47.776550000000000     45.556519999999999     47.122750000000003
H      46.136650000000003     50.336919999999999     47.779550000000000
H      49.958550000000002     47.934680000000000     50.085450000000002
H      46.041449999999998     48.474749999999993     45.680050000000001
H      49.453249999999997     46.077999999999996     48.538749999999993
H      47.853549999999998     51.540420000000005     49.024450000000002
H      49.639849999999996     50.198619999999998     50.365949999999998
H      46.255349999999993     46.236879999999999     45.634050000000002
H      48.091149999999999     44.459579999999995     46.833250000000000
