5

C      48.250699999999995     47.998199999999997     48.130015000000000
H      47.139400000000002     47.878499999999995     48.474734999999995
H      48.860599999999998     47.881899999999995     47.190844999999996
H      48.487199999999994     47.027099999999997     48.809155000000004
H      48.355899999999998     48.972900000000003     48.566505000000006
