18

C      48.318500499999985     48.550199999999990     47.646959999999993
C      48.552316500000011     47.676600000000008     48.513960000000004
C      47.725000500000000     49.812100000000001     48.140359999999994
C      48.741037500000004     48.023099999999999     49.880060000000007
C      48.390400499999991     48.291499999999999     46.239260000000002
C      48.511974500000001     46.249099999999999     47.933659999999996
C      47.442800499999997     50.071500000000000     49.526860000000006
C      48.156900499999999     49.202300000000008     50.487060000000000
C      48.713967500000003     47.068200000000004     45.606749999999998
C      48.714079500000004     45.970100000000002     46.580660000000002
H      47.427600500000004     50.639200000000002     47.286160000000002
H      49.197499499999999     47.399500000000003     50.575560000000003
H      47.953600500000000     49.063800000000015     45.569510000000001
H      48.376000499999996     45.511499999999998     48.706260000000007
H      46.802500500000001     50.940600000000003     49.882460000000002
H      48.345000499999990     49.749500000000012     51.444759999999995
H      48.746354500000002     46.872900000000001     44.555240000000005
H      48.703012500000007     45.059399999999997     46.127260000000000
