5

C      48.200450000000004     48.137984999999986     48.198599999999985
H      48.493749999999999     47.127224999999996     48.661100000000005
H      48.668849999999999     48.872775000000004     48.825000000000003
H      47.331150000000001     48.815645000000004     48.187899999999999
H      48.517450000000004     48.244474999999994     47.174999999999997
