47

C      45.093699999999998     45.848229999999987     45.885700000000000
C      46.219600000000007     46.680430000000001     45.612400000000001
C      50.382600000000004     49.402040000000000     52.209899999999998
C      45.104099999999995     45.052940000000007     47.118500000000004
C      49.496500000000005     48.261520000000004     52.598999999999997
C      50.505699999999997     49.405180000000001     50.773699999999998
C      47.374400000000001     47.072330000000008     46.527800000000006
C      48.108600000000003     46.267590000000013     51.595499999999994
C      46.566100000000006     45.042130000000000     49.778500000000001
C      48.687700000000007     48.011610000000005     49.138600000000004
C      48.930000000000000     47.554630000000003     51.495799999999996
C      49.354800000000004     48.553460000000001     50.449999999999996
C      46.124700000000011     45.254630000000006     48.170800000000007
C      47.608000000000011     46.118960000000001     50.196300000000001
C      47.009400000000007     46.365369999999999     47.875300000000003
C      47.773999999999994     46.943390000000008     48.906200000000005
C      48.431300000000014     48.038300000000007     46.329299999999996
C      48.800900000000006     48.625619999999998     47.708800000000004
C      43.876500000000007     45.611940000000004     44.976400000000005
C      45.532800000000002     46.253209999999996     43.114100000000001
C      46.312599999999996     47.017200000000003     44.120500000000000
C      47.839400000000005     45.465699999999998     52.828399999999995
C      51.969100000000005     51.445610000000002     52.695200000000007
C      51.201200000000007     50.231210000000004     53.337899999999998
C      51.328300000000006     50.574110000000005     49.951000000000001
C      45.445000000000007     44.695729999999998     50.966799999999999
H      44.100800000000007     44.655609999999996     47.483300000000007
H      49.558200000000006     47.880320000000012     53.657299999999999
H      47.205500000000001     44.272999999999996     49.662500000000001
H      48.906300000000009     48.166430000000005     45.459099999999999
H      49.486900000000013     49.519020000000012     47.894100000000002
H      43.301200000000001     46.732200000000006     44.874000000000002
H      45.898000000000003     46.341580000000008     42.035599999999995
H      46.979800000000004     47.834770000000006     43.648299999999999
H      50.262200000000007     50.491110000000006     53.744599999999998
H      51.832900000000002     49.653880000000001     53.964400000000005
H      52.324400000000004     51.056309999999996     50.433600000000006
H      50.793500000000002     51.211210000000008     49.116599999999998
H      45.859299999999998     44.010189999999994     51.713500000000003
H      44.482000000000006     44.460670000000007     50.848199999999999
H      45.423999999999999     45.816950000000006     51.261100000000006
H      51.886600000000001     49.704460000000012     49.377400000000002
H      43.038900000000005     44.922970000000007     45.233300000000007
H      43.601500000000001     45.042389999999997     42.555600000000005
N      44.353700000000003     45.640490000000000     43.238999999999997
O      47.509400000000007     45.016500000000008     53.809699999999999
O      52.961099999999995     51.989810000000006     52.533700000000003
