18

C      48.184999999999995     48.734749999999991     47.517084999999994
C      47.506599999999999     47.990449999999996     48.656685000000003
C      48.015799999999999     47.971050000000005     46.289125000000006
C      46.740700000000004     46.779449999999997     48.515084999999992
C      48.888599999999997     50.003950000000003     47.492485000000002
C      47.331500000000005     48.743350000000007     49.899485000000006
C      47.332300000000004     46.817650000000000     46.054665000000000
C      46.605599999999995     46.185450000000003     47.183885000000004
C      49.293499999999995     50.129050000000007     48.917084999999993
C      48.470399999999998     49.651650000000004     49.935185000000011
H      48.480300000000000     48.407550000000001     45.410345000000000
H      46.356999999999999     46.230450000000005     49.303485000000002
H      49.336600000000004     50.462249999999997     46.645855000000005
H      46.916200000000003     48.349150000000009     50.861085000000010
H      47.418900000000001     46.242149999999995     45.098514999999999
H      45.880899999999997     45.281149999999997     47.120385000000006
H      50.119100000000003     50.718850000000003     49.394085000000004
H      48.722899999999996     49.879649999999998     50.901485000000001
