33

C      48.202249999999999     51.614699999999985     41.835099999999997
C      49.110750000000010     50.621000000000002     50.336700000000000
C      48.223950000000002     51.213400000000000     43.173800000000007
C      48.574250000000006     50.753499999999995     44.562000000000005
C      47.334950000000006     50.432600000000001     44.192500000000003
C      48.528050000000007     47.219699999999996     52.582200000000007
C      46.562350000000009     50.604700000000001     46.221300000000006
C      46.068650000000005     44.080999999999996     52.840600000000002
C      47.028250000000000     50.811199999999992     49.017700000000012
H      50.434550000000002     50.162799999999997     44.441400000000009
H      47.632649999999998     51.566899999999997     41.048600000000000
H      48.920349999999999     52.274600000000000     41.337300000000006
H      47.727249999999998     48.284500000000001     44.313800000000008
H      47.893349999999998     46.358600000000003     49.920800000000007
H      49.377750000000006     48.745200000000004     51.783300000000004
H      48.639550000000000     44.633800000000001     49.994600000000005
H      48.501350000000002     45.606199999999994     51.351900000000008
H      46.481350000000006     43.832000000000001     54.951400000000000
H      46.457750000000004     44.899200000000000     50.787799999999997
H      48.240450000000010     43.969999999999992     54.142199999999995
H      46.410550000000001     48.481199999999994     43.975200000000008
N      47.078550000000007     43.725400000000000     54.021300000000004
N      47.787850000000006     45.248100000000001     50.208200000000012
O      47.274749999999997     48.966799999999999     43.684400000000004
O      49.723250000000007     50.011900000000004     51.215600000000002
O      49.700450000000004     49.841000000000001     44.967800000000004
O      48.090450000000004     48.321700000000000     52.286300000000004
O      45.964950000000002     50.652300000000004     45.215000000000011
O      48.785150000000002     46.015099999999997     52.758400000000002
O      48.553250000000006     51.259899999999995     49.454000000000001
O      46.068950000000001     50.309400000000004     49.335100000000004
O      45.565449999999998     44.524600000000000     51.840499999999999
S      47.819450000000003     50.138399999999997     47.288400000000003
