18

C      47.715679999999999     48.373049999999992     47.554649999999988
C      48.019510000000011     47.331550000000000     48.615150000000000
C      48.651780000000016     48.401649999999997     46.384249999999994
C      49.374390000000005     46.694350000000000     48.512349999999998
C      46.647920000000006     49.332250000000009     47.737150000000000
C      47.071039000000006     47.315550000000002     49.781549999999996
C      49.970950000000016     47.909450000000000     46.442049999999995
C      50.399580000000014     47.159950000000002     47.575949999999992
C      45.632540000000027     48.935650000000003     48.705050000000000
C      45.758840000000021     47.939050000000002     49.698749999999990
H      48.509140000000002     49.137650000000001     45.651049999999998
H      49.600200000000001     46.022350000000003     49.487949999999998
H      45.860540000000007     49.977649999999997     47.110450000000000
H      47.216018000000005     46.503549999999997     50.512349999999998
H      50.447520000000011     48.135950000000001     45.487650000000002
H      51.393760000000000     46.900550000000003     47.639749999999992
H      44.606240000000000     49.384049999999995     48.467749999999995
H      44.947040000000015     47.450550000000000     50.349849999999989
