46

C      46.075874999999996     49.685799999999993     47.932699999999990
C      46.803575000000002     50.821100000000001     48.560500000000005
C      49.952375000000004     49.748200000000004     45.711999999999996
C      48.068275000000007     48.030300000000004     45.285199999999996
C      46.550075000000000     50.868499999999997     47.215699999999998
C      49.250275000000009     48.423000000000002     46.235299999999995
C      48.868275000000004     50.787700000000001     45.493199999999995
C      47.783575000000006     48.794899999999998     46.406199999999998
C      47.567975000000011     50.363900000000001     46.282399999999996
C      46.737075000000011     48.339500000000001     47.583500000000001
C      47.451875000000001     47.332000000000001     48.651999999999987
C      46.139875000000011     51.433300000000003     50.794100000000000
C      47.429475000000004     45.848300000000002     46.482499999999995
C      46.067575000000005     46.968100000000000     48.170400000000001
C      47.305375000000005     45.862400000000001     47.960899999999995
C      47.451474999999995     46.461100000000002     44.988900000000001
C      47.846475000000005     45.025800000000004     45.469299999999997
C      46.010775000000002     52.321899999999999     46.689699999999995
C      49.270175000000002     44.735100000000003     45.043399999999998
C      47.206975000000007     43.638900000000000     45.780400000000000
C      48.509875000000001     47.652400000000000     49.652499999999989
C      47.906875000000007     47.428200000000004     51.016400000000004
H      47.736674999999998     52.436199999999999     49.610099999999989
H      50.994774999999997     49.871900000000011     45.445799999999998
H      45.833675000000007     52.081499999999998     45.604199999999999
H      49.981775000000006     47.884900000000002     46.899400000000000
H      49.307774999999999     51.777900000000002     45.301699999999997
H      46.807675000000010     46.446600000000004     44.119299999999996
H      48.117575000000009     48.646900000000002     44.488000000000000
H      45.224235000000000     52.864300000000000     47.399799999999999
H      47.087675000000011     52.955900000000000     46.745999999999995
H      49.301175000000001     43.790199999999999     44.510500000000000
H      50.060175000000001     44.996200000000002     46.076899999999995
H      49.583075000000001     45.527300000000004     44.282299999999999
H      47.480575000000009     43.103400000000001     46.736300000000000
H      46.342275000000001     43.636499999999998     46.466299999999997
H      47.249075000000005     43.044100000000000     44.882799999999996
H      45.005225000000003     46.522399999999998     47.643200000000000
H      46.875175000000006     47.105100000000000     50.826499999999996
H      47.968875000000004     48.227400000000003     51.880700000000004
H      48.545175000000008     46.474800000000002     51.406800000000004
H      49.056075000000000     48.526000000000003     49.726900000000001
H      49.443874999999998     46.795900000000003     49.455099999999995
H      47.627575000000000     45.130400000000002     48.356699999999989
N      46.808375000000005     51.887100000000004     49.734300000000005
O      45.423155000000001     51.038100000000000     51.622900000000001
