18

C      47.222399999999993     48.241449999999986     47.845249999999993
C      48.681400000000004     47.817850000000000     47.823950000000004
C      46.878799999999991     49.514749999999999     47.230349999999994
C      49.615500000000004     48.629250000000006     47.123349999999995
C      46.321199999999997     47.669449999999998     48.790150000000004
C      48.651699999999998     46.475850000000001     48.468749999999993
C      47.870799999999996     50.204850000000000     46.687949999999994
C      49.176099999999998     50.025150000000004     46.651350000000001
C      46.392399999999995     46.359449999999995     49.413149999999995
C      47.684999999999995     45.797849999999997     49.278749999999995
H      45.883800000000001     49.827350000000003     47.247149999999998
H      50.621400000000001     48.245549999999987     47.088749999999997
H      45.378599999999999     47.886749999999999     48.907750000000000
H      49.624900000000004     46.285649999999997     48.523549999999993
H      47.473999999999997     51.232350000000004     46.208049999999993
H      49.664999999999999     50.618949999999991     45.865749999999998
H      45.651299999999999     46.093150000000001     50.134250000000002
H      47.838699999999996     44.767649999999996     49.875350000000005
