18

C      47.762450000000001     47.357900000000001     47.553699999999992
C      47.828350000000007     48.744500000000002     48.158300000000004
C      47.711150000000011     46.215100000000007     48.589099999999995
C      47.864550000000001     48.870699999999999     49.551899999999996
C      48.114450000000012     47.177199999999999     46.195900000000002
C      47.697550000000000     49.813699999999997     47.110400000000006
C      47.684250000000013     46.416100000000000     49.961000000000006
C      47.902650000000001     47.849000000000004     50.590700000000005
C      48.456050000000012     48.288399999999996     45.374400000000001
C      47.947050000000011     49.598900000000000     45.800400000000003
H      47.663850000000004     45.240899999999996     48.090899999999998
H      47.794050000000006     49.864999999999995     49.891500000000001
H      48.132150000000003     46.160700000000006     45.715700000000005
H      47.316549999999999     50.759100000000004     47.193700000000000
H      47.446850000000005     45.497799999999998     50.446400000000004
H      48.154850000000003     48.077700000000007     51.727200000000003
H      48.683450000000001     48.143899999999988     44.272799999999997
H      47.941150000000000     50.246199999999988     45.000899999999994
