40

C      47.403099999999995     48.115599999999993     46.440849999999983
C      46.817000000000007     46.749200000000002     46.292949999999998
C      45.305800000000005     48.224699999999999     50.939850000000000
C      45.038899999999998     46.790000000000006     50.848349999999989
C      46.879999999999995     48.931500000000000     47.445649999999993
C      45.866900000000001     46.000200000000007     47.312350000000002
C      45.740099999999998     49.004199999999997     49.826850000000000
C      45.390600000000006     45.964600000000004     49.699949999999994
C      46.165000000000006     48.229600000000005     48.540349999999997
C      45.642899999999997     46.772499999999994     48.535249999999998
C      48.494799999999998     48.230500000000006     45.319449999999996
C      48.494399999999999     47.644900000000007     43.996350000000000
C      47.540499999999994     46.540800000000004     43.950150000000001
C      47.367699999999999     45.853600000000000     45.273549999999993
C      44.886899999999997     48.850499999999997     52.267049999999990
C      44.359899999999996     48.198200000000000     53.392449999999990
C      44.448300000000003     46.773799999999994     53.203049999999998
C      44.649000000000001     45.990600000000001     52.048049999999996
C      49.766199999999998     48.709000000000003     45.649250000000002
C      50.795400000000001     48.289199999999994     44.723349999999989
C      50.518799999999999     48.218599999999995     43.234349999999999
C      49.409299999999988     47.606700000000004     42.804650000000002
C      45.564300000000003     50.270200000000003     52.138449999999999
C      51.305499999999995     49.076200000000000     42.712949999999999
H      47.394300000000001     49.983300000000000     47.859249999999996
H      45.911400000000000     50.108300000000000     49.944550000000000
H      45.413499999999999     44.964100000000002     49.686949999999989
H      47.098100000000002     46.396500000000003     42.968749999999993
H      47.261700000000005     44.758300000000006     45.422149999999995
H      44.184899999999999     48.872900000000001     54.331949999999999
H      44.048100000000005     46.347499999999997     54.067949999999989
H      44.754099999999994     45.031099999999995     51.660049999999991
H      49.553500000000000     48.995099999999994     46.609850000000002
H      51.724199999999996     48.448499999999996     45.053949999999993
H      49.180999999999997     47.619299999999996     41.668050000000001
H      51.951899999999995     49.589100000000002     43.308050000000001
H      51.016800000000003     49.635300000000001     41.799649999999993
H      46.757400000000004     50.276300000000006     52.097149999999992
O      44.921400000000006     51.241699999999994     51.978149999999992
O      44.894999999999996     45.339399999999998     46.956749999999992
