18

C      48.098149999999983     47.474309999999988     47.782449999999983
C      48.027149999999992     48.893860000000004     48.268450000000001
C      46.920949999999991     46.649469999999994     47.324449999999999
C      46.660049999999998     49.555250000000001     48.027749999999997
C      49.407049999999998     47.053799999999995     47.583449999999999
C      49.226249999999993     49.523749999999993     48.568950000000001
C      45.800550000000001     47.552109999999999     47.287649999999999
C      45.452549999999988     48.911029999999997     47.525149999999996
C      50.644649999999999     47.816609999999997     47.480049999999991
C      50.582049999999995     49.160020000000003     47.939149999999998
H      47.028549999999996     45.514049999999997     46.945250000000001
H      46.417349999999999     50.428849999999997     48.528949999999995
H      49.541449999999998     45.926810000000003     47.857950000000002
H      49.220949999999988     50.485950000000003     49.157650000000004
H      45.003749999999997     47.009739999999994     46.842349999999996
H      44.294550000000001     49.513950000000008     47.531949999999995
H      51.705449999999999     47.516329999999996     47.225949999999997
H      51.352049999999991     49.934849999999997     48.014150000000001
