18

C      48.671849999999985     47.798299999999983     47.189099999999996
C      47.672649999999997     48.182399999999994     48.216799999999992
C      48.977249999999998     46.494999999999997     46.584000000000003
C      47.674649999999993     47.102100000000000     49.284700000000001
C      48.890549999999990     49.024999999999999     46.507800000000003
C      46.878249999999994     49.415699999999994     48.269000000000005
C      48.479449999999993     45.451400000000000     47.479100000000003
C      47.866849999999992     45.802299999999995     48.793700000000001
C      48.446049999999993     50.382599999999989     46.560800000000000
C      47.410249999999998     50.481800000000000     47.562100000000001
H      49.481849999999994     46.327099999999994     45.740300000000005
H      47.370849999999997     47.243000000000002     50.281199999999998
H      49.545050000000003     48.815399999999990     45.761600000000001
H      46.454949999999997     49.370799999999996     49.204899999999995
H      48.119849999999992     44.381700000000002     47.327399999999997
H      47.854449999999993     45.035299999999999     49.448299999999989
H      48.547649999999997     51.004699999999993     45.718800000000002
H      46.889049999999997     51.618299999999998     47.576999999999998
