18

C      48.242549999999994     48.145899999999990     48.630804999999995
C      47.641050000000007     47.801099999999998     47.322805000000002
C      47.707949999999997     49.084699999999998     49.703505000000000
C      46.388549999999995     48.611800000000002     47.231704999999998
C      49.548349999999999     47.629899999999999     49.285204999999998
C      48.260149999999996     46.905000000000001     46.303305000000002
C      46.623050000000006     49.891100000000009     49.403705000000009
C      45.948650000000001     49.701900000000002     48.079504999999997
C      50.077449999999999     46.835300000000004     48.291404999999997
C      49.440550000000002     46.476399999999998     46.983004999999999
H      48.192250000000001     49.091399999999993     50.714604999999999
H      45.783050000000003     48.452300000000001     46.333104999999996
H      49.945250000000001     47.637500000000003     50.323504999999990
H      47.805549999999997     46.750900000000001     45.285395000000001
H      46.127849999999995     50.504300000000001     50.151105000000008
H      45.216449999999995     50.252499999999998     47.491804999999999
H      50.783550000000005     46.258900000000004     48.864004999999999
H      49.935749999999999     45.495699999999999     46.460905000000004
