18

C      47.740649999999995     47.144449999999992     47.614149999999995
C      48.816950000000006     47.510050000000007     48.707149999999992
C      47.210950000000004     47.653850000000006     46.538449999999997
C      48.455250000000007     50.215350000000001     48.394350000000003
C      47.167650000000002     45.750850000000000     48.067949999999996
C      48.950450000000004     48.919550000000001     48.931949999999993
C      47.666950000000000     49.049450000000007     46.263950000000001
C      47.987449999999995     50.129249999999999     47.120649999999998
C      48.004950000000008     45.412149999999997     49.229649999999999
C      48.952050000000000     46.434350000000009     49.656550000000003
H      46.577950000000001     47.100650000000002     45.689050000000002
H      48.500650000000007     51.306350000000009     48.643049999999995
H      46.885950000000001     45.323450000000008     47.081550000000000
H      49.422049999999999     48.986950000000007     49.969850000000001
H      47.423749999999998     49.175350000000009     45.228650000000002
H      47.719850000000001     51.350650000000002     46.689149999999998
H      48.069050000000004     44.649349999999998     50.037450000000000
H      49.407150000000001     46.548050000000003     50.771349999999998
