18

C      48.032599999999995     47.545719999999996     48.627999999999986
C      48.193299999999994     48.636460000000014     47.488199999999999
C      46.639200000000002     47.285950000000007     49.184599999999996
C      47.168700000000001     49.587530000000001     47.281100000000002
C      49.169600000000003     46.540980000000005     48.968200000000003
C      49.581599999999995     48.802690000000005     47.017699999999998
C      45.611600000000003     48.070330000000013     48.513200000000005
C      45.827000000000005     49.389810000000004     47.936900000000001
C      50.222600000000000     46.811530000000005     48.195999999999991
C      50.414600000000007     47.612270000000009     46.973800000000004
H      46.405600000000000     46.623850000000004     49.963799999999999
H      47.301800000000000     50.310969999999998     46.539200000000001
H      49.167500000000004     45.689030000000002     49.700099999999999
H      49.914199999999994     49.105050000000006     46.036200000000001
H      44.503500000000003     47.806510000000003     48.750999999999998
H      44.938800000000001     50.029090000000004     47.922699999999999
H      51.149100000000004     46.122840000000004     48.262200000000000
H      51.496499999999997     47.680329999999998     46.517900000000004
