17

C      49.479554999999998     47.950999999999993     49.380849999999988
C      48.608885000000022     48.174700000000009     48.031549999999996
C      49.454191000000002     48.588799999999999     46.741149999999998
C      47.731985000000009     47.169699999999999     47.683249999999994
C      46.415785000000014     47.073399999999999     48.879049999999992
H      49.377861000000003     49.869999999999997     46.756249999999994
H      50.090505000000007     49.001200000000004     49.750349999999997
H      48.950660000000006     47.622900000000008     50.214150000000004
H      47.972085000000007     49.151199999999996     48.010749999999994
H      49.113319000000004     48.041000000000004     45.785849999999996
H      50.502915000000002     48.169300000000000     46.878449999999994
H      47.407485000000023     46.130000000000003     47.724949999999993
H      47.361985000000004     47.480700000000006     46.742249999999991
H      45.497084999999998     47.405600000000000     48.404349999999994
H      46.207985000000022     46.225100000000005     49.534649999999999
H      46.691685000000007     47.968100000000000     49.453749999999999
H      50.262255000000003     47.224200000000003     49.091649999999994
