9

C      47.280449999999988     46.816049999999990     47.789449999999988
C      49.217250000000007     48.654049999999991     47.516450000000006
C      48.260050000000007     47.964950000000002     48.355450000000005
H      48.022750000000002     46.195349999999998     47.259150000000005
H      46.490750000000006     47.313249999999989     46.927449999999993
H      49.387550000000005     49.804650000000002     47.543949999999995
H      49.509249999999994     47.919549999999994     46.855050000000006
H      47.930750000000003     48.518850000000008     49.144949999999994
H      46.734250000000003     46.253450000000001     48.500850000000000
