18

C      48.591299999999990     47.913619999999980     47.899699999999989
C      47.367999999999995     47.342519999999986     48.636600000000001
C      48.991000000000000     47.557719999999996     46.546099999999996
C      46.818199999999990     46.392919999999997     47.581800000000001
C      49.124700000000004     49.233119999999992     48.279100000000000
C      46.774400000000000     48.155919999999988     49.685800000000000
C      48.655599999999993     46.338919999999995     45.910799999999995
C      47.400700000000001     45.768119999999989     46.388000000000005
C      48.422600000000003     49.963019999999993     49.333799999999997
C      47.322800000000001     49.386619999999986     50.068100000000001
H      49.768999999999991     48.125519999999987     45.842399999999998
H      45.900999999999996     46.363319999999995     48.213499999999996
H      50.099000000000004     49.867019999999989     47.707999999999998
H      46.111999999999995     47.719819999999991     50.346400000000003
H      49.271500000000003     46.246119999999998     44.932800000000000
H      46.971699999999998     45.005119999999998     45.781800000000004
H      48.493600000000001     50.994880000000002     49.639799999999994
H      46.753299999999996     49.724019999999989     51.067200000000000
