11

C      48.464349999999996     48.320399999999992     46.750749999999996
C      48.395550000000007     47.893599999999999     48.174549999999996
C      47.096350000000008     48.125999999999998     49.011750000000006
H      47.829850000000008     49.208999999999996     46.596850000000003
H      49.596049999999998     48.587200000000003     46.494150000000005
H      47.983650000000004     47.583399999999990     45.912850000000006
H      48.908650000000016     46.791000000000004     48.124650000000003
H      48.971750000000007     48.579900000000002     48.841149999999999
H      46.403950000000002     48.768700000000003     48.681749999999994
H      47.506050000000002     48.678599999999996     50.087149999999994
H      46.625250000000008     47.115199999999994     49.109150000000000
