18

C      47.618849999999995     47.132549999999995     48.289449999999988
C      48.440250000000006     48.200350000000000     47.698250000000002
C      47.125749999999996     47.018749999999997     49.523650000000004
C      48.660649999999990     49.391949999999994     48.603750000000005
C      47.005949999999999     46.364350000000002     47.194050000000004
C      48.545550000000006     47.037350000000004     45.506649999999993
C      47.568849999999998     48.113050000000001     50.460650000000001
C      48.153349999999989     49.330950000000001     49.980350000000001
C      47.389550000000000     46.183549999999997     45.864850000000004
C      49.109150000000000     48.025349999999989     46.414050000000003
H      49.150750000000002     47.003850000000000     44.555449999999993
H      46.207650000000001     46.402749999999997     49.682550000000006
H      49.160049999999998     50.162850000000006     48.181250000000006
H      46.101150000000004     45.824650000000005     47.139349999999993
H      47.460650000000001     48.200249999999997     51.444550000000007
H      48.156449999999992     50.175349999999995     50.681250000000006
H      46.725750000000005     45.850750000000005     45.138549999999995
H      49.898849999999996     48.861750000000001     46.176550000000006
