18

C      48.094149999999992     47.734449999999995     48.360999999999990
C      48.049850000000006     48.524449999999995     47.249199999999995
C      48.224150000000009     48.518850000000008     49.740999999999993
C      47.528950000000009     49.903250000000007     47.510399999999997
C      48.381450000000001     46.335850000000001     48.419899999999991
C      48.417349999999999     47.974750000000007     45.966000000000001
C      47.835850000000008     49.853649999999995     49.865999999999993
C      47.055150000000012     50.370150000000002     48.719299999999997
C      48.606850000000009     45.644250000000007     47.146499999999996
C      48.782450000000011     46.594349999999999     46.054799999999993
H      48.615250000000003     48.077249999999999     50.630000000000003
H      47.408150000000006     50.448249999999994     46.594500000000004
H      48.756550000000004     45.793550000000003     49.429200000000002
H      48.508650000000003     48.538249999999998     45.146300000000004
H      47.833750000000009     50.428550000000008     50.853699999999996
H      46.801349999999999     51.435250000000003     48.784600000000005
H      48.582550000000012     44.564749999999997     47.029800000000002
H      49.198650000000001     45.967050000000008     45.298600000000000
