19

C      48.954199999999993     50.132709999999982     45.390004999999995
C      48.655299999999997     47.926489999999987     48.495824999999996
C      47.526499999999999     47.198190000000004     48.027005000000003
C      49.364399999999996     47.694889999999972     49.704585000000009
C      46.860900000000001     46.197390000000013     49.036415000000005
C      49.010999999999996     48.932690000000008     47.631204999999994
C      46.763300000000001     47.328189999999992     46.771225000000001
C      48.915199999999999     46.576889999999992     50.379604999999998
C      47.640299999999996     45.956589999999991     50.176105000000007
C      48.479900000000001     48.915989999999987     46.310474999999997
C      47.394500000000001     48.180190000000010     45.778444999999991
H      50.131500000000003     48.252190000000013     50.265744999999995
H      45.868499999999997     45.769990000000000     48.778324999999995
H      49.914999999999992     49.437903999999989     48.065075000000007
H      45.892099999999999     46.653989999999993     46.553604999999990
H      49.268000000000001     46.100989999999989     51.300775000000002
H      47.330500000000001     45.105790000000013     50.789484999999999
H      47.229199999999999     48.025190000000002     44.699224999999998
O      49.445700000000002     50.894209999999987     44.753805000000000
