18

C      47.343149999999994     47.803750000000001     48.194199999999995
C      48.715550000000000     48.037250000000000     47.582900000000002
C      46.727650000000004     46.563150000000007     47.872500000000002
C      49.499549999999992     47.022550000000010     46.914800000000007
C      46.354450000000000     48.584650000000011     48.921500000000002
C      48.938449999999996     49.493650000000002     47.758600000000001
C      47.563750000000006     45.567850000000007     47.127100000000006
C      48.959949999999999     45.654250000000005     47.030900000000003
C      46.790850000000006     49.977649999999997     48.614800000000002
C      47.892150000000001     50.367950000000008     48.016700000000007
H      45.743750000000006     46.117150000000009     48.315900000000006
H      50.371749999999999     46.814250000000001     46.400900000000000
H      45.628250000000001     48.428350000000009     49.599100000000000
H      49.948950000000004     49.839449999999999     47.776000000000003
H      47.252350000000000     44.507750000000001     47.042000000000002
H      49.524350000000005     44.767850000000010     47.001300000000008
H      46.140450000000001     50.920349999999999     48.942000000000000
H      47.931150000000009     51.492249999999999     48.135899999999999
