68

C      44.502084999999994     43.491149999999990     44.322784999999989
C      44.557385000000004     48.281549999999996     48.004495000000006
C      44.455585000000006     47.221249999999998     49.094785000000002
C      44.618085000000001     50.769250000000000     52.325485000000000
C      44.723885000000003     49.654750000000007     48.152925000000010
C      44.501385000000006     47.496949999999998     50.517125000000007
C      45.099285000000002     51.507750000000001     49.887514999999993
C      45.045684999999999     49.425449999999998     52.146035000000005
C      45.008185000000005     49.929349999999999     49.674475000000001
C      44.972685000000006     48.971050000000005     50.707545000000010
C      44.104985000000006     47.727149999999995     46.668003900000002
C      44.152984999999994     46.250650000000007     46.261884999999992
C      44.653984999999999     45.315150000000003     47.313284000000003
C      44.741085000000005     45.825249999999997     48.587935000000002
C      43.947584999999997     48.696050000000000     45.564984999999993
C      42.643984999999994     47.543250000000000     43.770285000000001
C      43.777984999999994     45.644550000000010     44.937384999999992
C      44.576585000000001     49.998050000000006     45.753884999999997
C      44.907384999999998     50.646950000000004     46.996815999999995
C      45.392885000000000     51.921650000000000     47.459271000000001
C      45.392784999999996     52.469050000000010     48.739995000000008
C      46.085185000000003     45.074849999999998     44.502285000000001
C      45.959084999999995     53.039050000000003     46.414684999999992
C      44.829585000000002     51.666550000000001     51.262295000000009
C      47.454355000000007     52.956050000000005     46.131384999999995
C      43.422784999999998     48.637950000000004     44.191784999999996
C      44.122284999999998     46.501350000000002     51.679974999999999
C      51.788245000000011     46.506650000000008     45.272984999999991
C      51.266815000000008     47.929749999999999     45.084584999999990
C      53.128365000000009     47.111050000000006     45.019284999999996
C      49.881455000000010     47.846550000000008     44.962984999999989
C      51.203495000000004     45.299350000000004     45.606884999999991
C      49.303945000000006     46.544750000000008     45.386184999999998
C      53.217305000000017     48.537549999999996     44.760384999999999
C      51.921835000000009     49.041650000000004     44.584784999999997
C      49.730534999999996     45.229050000000001     45.717884999999995
C      48.631085000000006     45.359350000000006     44.629784999999998
H      44.697785000000003     42.064549999999997     42.809384999999992
H      41.862284999999993     45.499949999999998     43.937484999999995
H      43.991184999999994     51.049950000000010     53.278615000000002
H      45.020985000000003     48.661749999999998     52.947495000000004
H      45.134885000000004     44.280349999999999     47.304338999999999
H      45.125385000000001     45.007950000000008     49.248635000000000
H      44.481185000000004     50.884150000000005     45.033484999999999
H      45.680985000000000     53.532650000000004     48.724035000000001
H      45.294284999999995     53.261350000000007     45.500384999999994
H      45.842684999999996     53.935450000000003     47.115737000000003
H      44.796784999999993     52.713650000000001     51.385885000000002
H      47.854305000000004     53.805450000000008     46.792781000000005
H      47.686165000000010     51.933149999999998     46.693088200000005
H      47.858665000000009     52.346550000000008     45.084184999999991
H      41.954484999999998     47.216350000000006     42.721384999999998
H      43.673485000000007     49.485150000000004     43.501784999999998
H      44.186685000000004     45.428349999999995     51.198195000000013
H      44.882484999999996     46.268249999999995     52.537215000000003
H      43.169384999999998     46.619150000000005     52.278374999999997
H      54.137715000000007     46.695250000000001     45.301284999999993
H      49.357365000000009     48.692549999999997     44.788184999999999
H      51.596665000000009     44.542150000000007     46.322984999999989
H      54.092115000000007     49.156050000000008     44.868784999999988
H      51.439635000000017     50.109850000000009     44.403584999999993
H      49.163565000000013     44.555250000000001     46.412084999999990
H      48.807365000000004     45.081649999999996     43.704184999999995
N      42.500684999999997     46.220050000000001     44.459684999999993
O      45.226584999999993     42.644850000000005     43.806884999999994
O      43.762885000000004     44.137450000000001     45.087485000000001
O      47.068427000000007     44.836950000000002     45.156284999999997
O      45.085384999999995     45.632050000000007     44.083884999999995
