18

C      47.957899999999995     47.259910499999989     47.222649999999987
C      47.654000000000003     48.527560499999993     48.023649999999996
C      46.716000000000001     46.529100499999998     46.606749999999998
C      46.375300000000003     49.085370500000010     48.081449999999997
C      49.375200000000000     47.232340500000007     47.342449999999992
C      48.702700000000000     49.249940500000008     48.733149999999988
C      45.465299999999999     47.275610499999999     46.507349999999995
C      45.251100000000001     48.570970500000001     47.225150000000006
C      50.408600000000000     47.775680499999993     48.201249999999995
C      50.102399999999996     48.881120500000009     48.972449999999995
H      46.959700000000005     45.678329500000004     46.128149999999998
H      46.264000000000003     50.090290499999995     48.533750000000005
H      49.802799999999998     46.511010499999998     46.524049999999995
H      48.307300000000005     50.321670499999996     49.159649999999992
H      44.581200000000003     46.827260499999994     46.163049999999998
H      44.662500000000001     49.386870500000001     47.129549999999995
H      51.418799999999997     47.522670500000004     48.039749999999991
H      50.483200000000004     49.595090499999998     49.871850000000002
