18

C      48.637249999999995     48.589449999999999     48.407799999999995
C      47.557549999999999     47.616350000000004     47.907799999999995
C      49.840350000000008     48.091750000000005     48.948399999999992
C      47.748449999999998     46.204750000000004     48.354799999999997
C      48.624050000000004     49.921349999999997     47.931899999999999
C      46.373250000000006     48.111350000000002     47.317599999999999
C      49.903849999999998     46.679450000000003     49.363599999999991
C      48.950750000000006     45.732450000000000     48.880799999999994
C      47.470850000000006     50.307350000000007     47.125900000000001
C      46.241450000000007     49.572350000000000     47.065500000000000
H      50.570349999999998     48.796050000000001     48.992899999999992
H      47.129150000000003     45.417250000000003     48.151399999999995
H      49.448850000000000     50.375150000000005     48.241399999999999
H      45.635150000000003     47.375350000000005     47.241500000000002
H      50.771049999999995     46.072350000000000     49.510199999999998
H      49.204950000000004     44.608250000000005     48.989799999999988
H      47.459849999999996     51.391749999999995     46.848699999999994
H      45.228950000000005     49.674250000000008     46.489800000000002
