18

C      47.320899999999995     48.492199999999997     48.227819999999994
C      48.346799999999995     47.598200000000006     47.707169999999998
C      46.435399999999994     49.276200000000003     47.397329999999997
C      48.381200000000000     46.975400000000008     46.392249999999997
C      47.365299999999998     48.361699999999999     49.709649999999989
C      49.172100000000007     46.623500000000007     48.441600000000001
C      46.761000000000003     49.005300000000005     46.045620000000000
C      47.699700000000000     47.947500000000005     45.560379999999995
C      48.291500000000006     47.671599999999998     50.422139999999999
C      49.310099999999998     46.836299999999994     49.883369999999992
H      45.858100000000000     49.996799999999993     47.909700000000001
H      49.295499999999997     46.420699999999997     45.824149999999996
H      46.645100000000006     48.780900000000003     50.453120000000006
H      49.820200000000007     46.003200000000007     47.956299999999999
H      46.069499999999998     49.536900000000003     45.502879999999998
H      47.554700000000004     48.267300000000006     44.610340000000001
H      48.286700000000003     47.717299999999994     51.389659999999999
H      50.141900000000000     46.628600000000006     50.495619999999995
