45

C      47.422999999999988     47.878149999999998     47.249499999999998
C      47.008799999999994     48.253150000000005     48.575499999999998
C      43.297599999999996     48.922150000000002     45.522200000000005
C      46.660499999999992     47.670650000000002     46.066300000000005
C      45.499799999999993     48.400850000000005     48.680200000000006
C      44.185499999999998     48.001050000000006     45.095499999999994
C      45.206599999999995     48.085550000000005     46.250200000000000
C      44.683799999999998     48.498750000000001     47.514500000000005
C      48.842499999999994     47.971050000000005     47.005599999999994
C      49.824499999999993     48.214849999999998     48.029599999999995
C      49.493199999999995     48.456950000000006     49.445200000000007
C      47.979899999999994     48.326850000000007     49.630800000000001
C      49.421899999999994     47.867450000000005     45.622400000000006
C      50.794300000000000     48.347549999999998     45.365699999999997
C      51.822600000000001     48.383850000000010     46.436399999999999
C      51.386299999999999     48.344850000000008     47.743000000000002
C      48.526299999999999     47.528350000000003     44.498600000000003
C      47.056399999999996     47.576350000000005     44.626299999999993
C      50.495899999999999     48.357849999999999     50.544500000000006
C      49.752199999999995     48.385249999999999     51.825399999999995
C      48.456499999999998     47.978650000000002     52.246100000000006
C      47.518099999999997     48.314750000000004     51.047599999999996
C      52.236100000000000     48.563550000000006     48.845400000000005
C      51.859800000000000     48.637550000000005     50.193999999999996
C      46.220399999999991     48.546250000000001     51.200200000000002
C      45.227999999999994     48.837950000000006     50.050199999999997
C      46.015699999999995     46.867850000000004     43.698600000000006
C      45.013599999999990     48.179150000000007     43.749699999999997
C      43.913999999999994     49.546750000000003     50.312900000000006
H      42.694499999999998     49.534850000000006     44.818199999999997
H      42.532299999999999     49.636550000000000     47.448299999999996
H      52.878099999999996     48.412549999999996     46.095199999999998
H      48.938299999999991     47.256750000000004     43.592099999999995
H      50.581299999999992     48.797150000000002     52.339900000000007
H      48.165100000000002     47.818950000000001     53.193800000000003
H      53.467700000000001     48.854950000000002     48.977700000000006
H      52.881999999999998     48.747150000000005     51.094799999999999
H      45.576499999999996     49.029850000000010     52.096200000000003
H      46.513299999999994     46.814750000000004     42.806199999999997
H      45.646299999999997     45.876350000000002     43.872300000000003
H      45.744599999999998     49.180350000000004     43.940999999999995
H      44.201699999999995     48.246150000000000     42.874800000000000
H      50.981499999999990     48.120150000000002     44.278600000000004
N      43.470699999999994     49.221450000000004     46.924100000000003
O      42.942199999999993     50.123649999999998     50.415299999999995
