14

C      48.063299999999991     47.833199999999991     47.178099999999993
C      46.759100000000004     48.393699999999995     47.672100000000000
C      46.400800000000004     48.165899999999993     49.013399999999990
C      47.675100000000000     47.990800000000007     49.845200000000006
C      49.031599999999997     47.971000000000004     49.270799999999994
C      49.354300000000009     47.656999999999996     47.900999999999996
C      48.720399999999998     47.341200000000001     45.902200000000001
H      45.914800000000000     48.621899999999997     47.120099999999994
H      45.553100000000001     48.694900000000004     49.315399999999997
H      47.573400000000007     48.261800000000008     50.944400000000002
H      49.673299999999998     48.314600000000013     50.114699999999999
H      50.446899999999999     47.592699999999994     47.584399999999995
H      49.810900000000004     47.305099999999996     45.966400000000000
H      48.142400000000009     47.624600000000001     45.055599999999998
