18

C      47.251449999999991     47.687849999999990     48.945049999999995
C      47.788350000000001     48.669849999999997     47.853149999999999
C      48.206150000000001     47.070049999999995     49.804449999999996
C      49.205850000000005     49.044649999999997     48.077249999999999
C      45.986849999999997     46.962449999999997     48.529450000000004
C      46.980650000000004     48.964150000000004     46.640650000000001
C      49.474749999999993     47.814149999999998     49.874050000000004
C      50.115450000000003     48.906849999999991     49.250549999999997
C      45.625250000000001     47.109049999999996     47.117250000000006
C      45.798549999999999     48.227249999999998     46.116549999999997
H      48.125949999999996     46.183149999999998     50.610750000000003
H      49.893250000000002     49.816850000000002     47.501150000000003
H      45.392550000000000     46.414149999999992     49.196750000000002
H      47.559949999999994     49.659949999999995     45.936950000000003
H      49.895249999999997     47.263249999999999     50.730849999999997
H      51.186749999999996     49.480649999999997     49.380549999999992
H      44.813250000000004     46.609649999999995     46.730250000000005
H      45.203449999999997     48.548549999999992     45.269150000000003
