18

C      48.644249999999992     47.542249999999996     48.550349999999995
C      48.022549999999995     48.267850000000003     47.368650000000002
C      48.719149999999999     46.017650000000010     48.520150000000001
C      47.684449999999998     47.689250000000008     46.113450000000000
C      48.629750000000001     48.347050000000003     49.782950000000000
C      47.419449999999998     49.602750000000007     47.617549999999994
C      48.473749999999995     45.447750000000006     47.214849999999998
C      47.711150000000004     46.269950000000001     46.151749999999993
C      48.135649999999998     49.738850000000006     49.810649999999995
C      47.721249999999998     50.498750000000008     48.663649999999990
H      49.280050000000003     45.269650000000006     49.120549999999994
H      47.105249999999998     48.088050000000003     45.329949999999997
H      48.770349999999993     48.177150000000005     50.797150000000002
H      46.719949999999997     49.837949999999999     46.592349999999996
H      48.577150000000003     44.546849999999999     47.009050000000002
H      47.598150000000004     45.834949999999999     45.202849999999998
H      48.133849999999995     50.198349999999998     50.716750000000005
H      47.143249999999995     51.453150000000001     48.652149999999992
