18

C      47.204999999999998     48.158349999999999     47.669099999999993
C      48.400100000000002     47.529150000000001     48.404499999999999
C      47.336300000000001     48.569150000000008     46.238000000000000
C      49.511100000000006     47.486549999999994     47.531099999999995
C      45.912900000000000     48.370349999999988     48.263100000000001
C      48.274400000000007     47.411850000000001     49.822299999999998
C      48.667800000000007     48.696749999999994     45.660199999999996
C      49.873500000000000     48.243049999999997     46.244999999999997
C      45.838000000000001     48.355850000000004     49.677199999999999
C      47.060099999999998     47.774850000000001     50.427400000000006
H      46.241999999999997     48.395650000000003     45.894799999999996
H      50.360700000000001     46.936750000000004     47.903300000000002
H      45.034600000000005     48.660349999999994     47.715599999999995
H      49.184599999999996     47.442650000000000     50.554000000000002
H      48.887099999999997     48.743449999999996     44.616000000000000
H      50.965399999999995     48.019450000000006     45.727199999999996
H      45.053800000000003     49.063249999999996     50.071700000000007
H      46.682099999999998     47.648150000000001     51.384000000000000
