18

C      48.194449999999989     48.592499999999987     48.722999999999999
C      47.728349999999992     48.192799999999991     47.280200000000008
C      47.215549999999993     48.899599999999992     49.588200000000001
C      46.399749999999997     47.802199999999999     46.693300000000008
C      49.656582999999998     48.499399999999994     48.777699999999996
C      48.542749999999984     47.538599999999988     46.308700000000002
C      45.894149999999996     48.676800000000000     49.073700000000002
C      45.463049999999996     48.164499999999990     47.772800000000004
C      50.579949999999997     47.897599999999997     47.735500000000002
C      49.932257000000007     47.348199999999991     46.565399999999997
H      47.351249999999993     49.119000000000000     50.645699999999991
H      46.146749999999997     47.505799999999994     45.792900000000003
H      50.439914000000002     48.574299999999994     49.535200000000003
H      48.091849999999994     47.063099999999991     45.354300000000009
H      45.010549999999995     49.022700000000000     49.760500000000008
H      44.329449999999994     48.271599999999992     47.576599999999999
H      51.670550000000006     47.658499999999989     47.887299999999996
H      50.713270000000009     46.881000000000000     45.975800000000007
