18

C      48.306749999999980     47.871549999999992     47.439299999999996
C      47.703350000000000     48.063649999999996     48.782899999999998
C      47.274749999999997     47.536649999999995     46.344799999999992
C      46.399349999999998     47.774249999999995     49.182699999999997
C      49.654150000000001     48.217749999999995     47.087499999999991
C      48.648650000000004     48.573650000000001     49.845699999999994
C      45.961550000000003     47.525049999999993     46.723900000000000
C      45.447249999999997     47.692650000000000     48.167599999999993
C      50.361249999999998     48.588650000000001     48.436300000000003
C      50.092349999999996     48.670050000000003     49.819000000000003
H      47.585650000000001     47.330550000000002     45.296099999999996
H      45.996250000000003     48.138549999999995     50.144999999999996
H      49.995050000000006     48.306349999999995     45.934299999999993
H      47.791950000000000     49.069450000000003     50.524199999999993
H      45.268450000000001     46.930549999999997     46.001099999999994
H      44.349149999999995     47.842149999999997     48.256100000000004
H      51.650850000000005     48.667149999999992     47.977800000000002
H      50.829049999999995     48.923050000000003     50.703900000000004
