8

C      48.049294999999994     48.096449999999997     48.437399999999997
C      47.735395000000004     47.772350000000003     46.842400000000005
H      47.961625000000005     48.156849999999991     49.621299999999998
H      48.112725000000005     49.175049999999999     48.517800000000001
H      49.093594999999993     47.551349999999999     48.633400000000002
H      46.906405000000007     48.286549999999991     46.434599999999996
H      47.976515000000006     46.824950000000001     46.511400000000002
H      48.500285000000005     48.383150000000001     46.378700000000002
