53

C      46.290999999999997     42.423299999999990     48.821199999999997
C      46.203099999999999     41.971199999999996     47.398099999999999
C      46.393200000000000     43.226200000000006     47.731800000000007
C      46.359199999999994     41.275800000000004     46.209699999999998
C      45.829500000000003     44.501900000000006     47.528100000000002
C      46.918799999999997     49.455700000000007     47.741600000000005
C      47.776299999999999     48.321799999999996     47.734099999999998
C      50.464800000000004     50.929299999999998     50.429199999999994
C      47.410400000000003     50.672899999999998     48.399500000000003
C      48.964300000000001     48.066199999999995     48.334699999999998
C      49.174500000000002     51.444299999999998     50.054100000000005
C      48.752599999999994     50.411900000000003     48.990000000000002
C      49.545700000000004     49.200199999999995     49.096800000000002
C      45.638100000000001     49.545199999999994     47.002800000000008
C      45.355299999999993     48.317300000000003     46.094000000000008
C      46.202700000000000     47.194199999999995     46.146700000000003
C      47.292300000000004     46.922200000000004     47.107399999999998
C      44.780300000000004     50.747100000000003     46.878700000000002
C      43.964599999999997     50.916100000000000     45.800700000000006
C      43.468899999999998     49.722200000000001     45.040400000000005
C      44.252699999999997     48.397999999999996     45.098399999999998
C      45.443099999999994     51.806260000000009     47.735300000000002
C      46.509200000000000     51.893021000000005     48.715000000000003
C      46.701400000000000     52.793840000000010     49.850600000000000
C      48.085500000000003     52.418807000000008     50.495800000000003
C      49.767599999999995     46.693600000000004     48.751900000000006
C      49.539399999999993     45.483000000000004     47.818400000000004
C      48.350999999999992     45.777299999999997     46.821200000000005
C      46.356999999999992     54.214100000000016     50.042400000000001
C      47.029900000000005     45.698899999999995     47.822900000000004
C      50.789799999999993     45.087000000000003     47.009700000000002
C      52.302799999999998     44.903099999999995     47.635300000000001
H      43.377000000000002     51.773032700000009     45.707599999999999
H      47.122499999999995     42.126800000000003     49.271100000000004
H      45.541499999999992     44.565799999999996     46.482800000000005
H      50.966900000000003     51.452799999999996     51.336900000000000
H      45.969199999999994     46.318500000000000     45.693800000000003
H      44.039999999999999     47.550100000000000     44.515500000000003
H      45.317799999999998     52.947220000000002     47.847300000000004
H      48.153200000000005     51.870521000000011     51.579899999999995
H      49.802699999999994     46.664699999999996     49.921000000000006
H      50.791800000000002     47.252300000000005     48.756200000000007
H      49.309599999999996     44.424099999999996     48.385200000000005
H      48.222400000000000     45.252700000000004     45.773900000000005
H      44.834700000000005     44.643699999999995     47.844900000000003
H      46.947600000000001     45.906700000000001     48.848299999999995
H      50.956099999999999     46.060299999999998     46.359500000000004
H      50.723499999999994     44.218400000000003     46.162400000000005
H      42.765899999999995     50.296499999999995     44.420100000000005
N      50.597400000000000     49.629999999999995     49.888100000000009
O      46.359699999999997     40.684299999999993     45.249900000000004
O      46.108299999999993     55.315700000000007     50.145300000000006
O      53.234100000000005     45.044600000000003     48.207700000000003
