18

C      47.700249999999997     48.826349999999991     48.733249999999991
C      48.714649999999999     48.234250000000003     47.852950000000000
C      46.826950000000004     49.784250000000000     48.187350000000002
C      48.629449999999999     48.683849999999993     46.380150000000000
C      47.338050000000003     48.303449999999998     50.071950000000001
C      49.396149999999999     46.992649999999998     48.227249999999998
C      46.878550000000004     49.863849999999999     46.669750000000001
C      47.589150000000004     49.380849999999995     45.704650000000001
C      47.917250000000003     47.101050000000001     50.465450000000004
C      48.870349999999995     46.560949999999991     49.496150000000000
H      46.158850000000001     50.331649999999982     48.779150000000001
H      49.451149999999998     48.556249999999991     45.743150000000000
H      46.511050000000004     48.463250000000002     50.775049999999993
H      50.090150000000001     46.248549999999994     47.540349999999997
H      45.909849999999999     50.335149999999999     46.704250000000002
H      47.239850000000004     49.422849999999997     44.587249999999997
H      47.561050000000002     46.834149999999994     51.412750000000003
H      49.575650000000003     45.664850000000001     49.442449999999994
