18

C      47.529549999999986     48.578149999999994     47.529899999999991
C      48.443550000000002     47.426469999999995     47.872600000000006
C      48.142150000000001     49.200780000000002     46.312600000000003
C      49.388850000000005     46.737499999999997     47.140900000000002
C      46.383049999999997     49.009999999999998     48.365600000000001
C      48.220450000000000     46.688330000000001     49.287099999999995
C      49.232949999999988     48.508229999999998     45.656800000000004
C      49.853850000000008     47.248749999999994     45.930700000000002
C      46.368250000000003     48.309729999999995     49.661200000000001
C      47.121549999999999     47.071790000000000     49.994500000000002
H      47.921549999999996     50.259440000000005     45.828000000000003
H      49.957650000000001     45.799560000000000     47.258099999999999
H      45.909350000000003     50.057879999999997     47.918800000000005
H      48.521149999999992     45.740559999999995     49.611300000000000
H      49.953449999999989     49.066759999999995     45.037599999999998
H      50.481850000000009     46.849010000000000     45.274700000000003
H      45.518149999999991     48.796059999999990     50.040700000000001
H      46.836349999999996     46.343280000000000     50.962400000000002
