18

C      48.819749999999999     47.886550000000000     48.494749999999989
C      47.923650000000002     48.806149999999995     47.687649999999998
C      49.487050000000004     46.810950000000005     47.658949999999997
C      48.319150000000000     49.079550000000005     46.384649999999993
C      48.420750000000005     48.092850000000006     49.963249999999995
C      46.633950000000006     49.286850000000001     48.049949999999995
C      49.769449999999999     47.175450000000005     46.370849999999997
C      49.183250000000008     48.211350000000003     45.589249999999993
C      47.104350000000004     48.419150000000009     50.453050000000005
C      46.388550000000002     49.272050000000014     49.451149999999998
H      49.634950000000011     46.292250000000003     48.774649999999994
H      47.623250000000006     49.692950000000003     45.815849999999998
H      49.055950000000003     47.659050000000008     50.614850000000004
H      46.026350000000001     49.707749999999997     47.429749999999999
H      50.504049999999999     46.552550000000004     45.810149999999993
H      49.128350000000005     48.330750000000002     44.529550000000000
H      46.682650000000002     48.388450000000013     51.470450000000000
H      45.495950000000001     49.589850000000006     49.976949999999988
