18

C      48.333199999999991     47.389249999999997     47.937550000000002
C      47.040399999999998     48.229950000000002     48.172050000000006
C      49.349399999999996     47.350450000000002     49.088850000000008
C      47.003900000000009     48.597849999999994     49.590650000000004
C      48.818000000000005     46.986150000000002     46.692550000000004
C      46.207900000000002     48.621450000000003     47.023150000000008
C      49.079600000000006     47.870350000000002     50.343850000000010
C      47.913300000000000     48.683450000000008     50.506050000000009
C      48.055300000000010     47.367850000000004     45.485350000000004
C      46.876200000000004     48.260449999999999     45.716450000000009
H      50.444499999999998     46.846550000000001     48.825550000000007
H      46.029500000000006     49.128249999999994     49.720450000000007
H      49.788100000000007     46.463149999999999     46.499850000000009
H      45.555500000000002     49.536850000000001     47.123350000000009
H      49.737299999999998     47.847750000000005     51.050950000000007
H      47.749600000000008     49.241249999999994     51.489849999999997
H      48.373500000000000     47.131550000000004     44.510150000000003
H      46.709300000000006     48.876950000000001     44.803850000000004
