108

C      53.853524999999991     44.745649999999983     43.879099999999994
C      52.740724999999998     43.356249999999989     41.919100000000000
C      51.630424999999988     42.545049999999989     42.131200000000000
C      52.924824999999998     43.941849999999988     44.551899999999996
C      52.968624999999989     44.042649999999995     43.071899999999999
C      50.966224999999994     41.993249999999989     43.237100000000005
C      54.878484999999998     45.615949999999998     44.492500000000000
C      51.396424999999994     51.891949999999994     45.361899999999999
C      52.363624999999999     52.951449999999994     44.862999999999992
C      55.777824999999993     51.872449999999986     46.005600000000008
C      52.201924999999989     50.812549999999987     45.215299999999999
C      53.966024999999988     53.268149999999991     44.789799999999993
C      54.161824999999993     49.502450000000010     45.675699999999999
C      56.559415000000001     53.042249999999996     46.208500000000008
C      53.651224999999997     50.751249999999985     45.212200000000003
C      54.483654000000001     51.960549999999984     45.225400000000000
C      49.894424999999998     51.233350000000002     45.518599999999999
C      49.245525000000001     52.511749999999992     45.163199999999996
C      49.864224999999990     53.769649999999999     45.510799999999996
C      51.183724999999995     53.708350000000010     44.945799999999998
C      49.253724999999989     49.990549999999985     45.897399999999998
C      47.778124999999989     50.001950000000008     46.351099999999995
C      47.618724999999998     52.432249999999996     44.918199999999992
C      50.252724999999998     49.092550000000003     45.570599999999992
C      51.696524999999994     49.398649999999989     45.517000000000003
C      54.582097000000005     47.149650000000008     46.952900000000000
C      54.218624999999989     47.906749999999988     45.865299999999998
C      48.462724999999992     52.589650000000006     43.827100000000002
C      54.149424999999994     47.218549999999993     44.534799999999997
C      52.995525000000001     48.704049999999995     45.722500000000004
C      43.711424999999991     48.032950000000000     51.090499999999999
C      43.297725000000000     48.574049999999986     49.697899999999997
C      48.171424999999999     48.046949999999995     49.243800000000000
C      45.018225000000001     47.427849999999992     51.120500000000000
C      44.346924999999999     48.773249999999990     48.710300000000011
C      47.420224999999988     47.446649999999991     50.389099999999992
C      47.155524999999997     48.431250000000006     48.262399999999992
C      46.075424999999996     47.781550000000010     50.164999999999999
C      45.860424999999992     48.556649999999991     48.883200000000002
C      42.610824999999991     47.335349999999991     51.936799999999998
C      41.170024999999995     47.549149999999983     51.917499999999997
C      41.021225000000001     48.797949999999986     51.149000000000008
C      41.878324999999990     48.862850000000009     49.818999999999996
C      43.038124999999994     46.191650000000010     52.777600000000000
C      41.751624999999990     45.673649999999995     53.283400000000007
C      39.341324999999998     46.058650000000000     53.173900000000003
C      40.579825000000000     46.557550000000006     52.945200000000000
C      44.412624999999991     45.786649999999995     52.920499999999997
C      45.458224999999999     46.395449999999997     52.095999999999997
C      39.885224999999991     49.694449999999989     50.890900000000009
C      39.602724999999992     50.375550000000004     49.580800000000004
C      41.505324999999999     49.443350000000009     48.471100000000000
C      43.975924999999989     49.319249999999997     47.370500000000000
C      42.541024999999991     49.600649999999987     47.411999999999999
C      46.693524999999994     45.410650000000004     52.068400000000004
C      47.959024999999997     46.369950000000003     51.460000000000001
C      41.252324999999999     49.944949999999992     53.639200000000010
C      40.963024999999988     50.185350000000000     51.983899999999998
C      41.469825000000000     44.415649999999999     54.118100000000005
C      43.155124999999998     43.686449999999994     53.942200000000007
C      44.551424999999995     44.454649999999987     53.760899999999999
C      47.350324999999998     48.483049999999992     46.643700000000003
H      47.713024999999988     50.738149999999990     47.250000000000007
H      46.090924999999999     51.545049999999989     45.681500000000000
H      53.081524999999999     43.831949999999992     40.933199999999999
H      51.325824999999995     42.231349999999992     41.047400000000003
H      52.239024999999998     43.141949999999994     44.655700000000003
H      55.532184999999998     45.954649999999987     43.888500000000001
H      55.120635000000007     45.131149999999991     45.465200000000003
H      55.973415000000003     50.944650000000010     46.506899999999995
H      54.286124999999998     54.331549999999993     44.782000000000004
H      57.633975000000007     53.153849999999991     46.726300000000002
H      56.103155000000001     53.980749999999986     45.761900000000004
H      49.510424999999998     54.694550000000007     45.390099999999997
H      50.070425000000000     47.843150000000009     45.511900000000004
H      54.583550000000002     47.675549999999987     47.889699999999998
H      54.682592000000000     47.578749999999985     43.721200000000003
H      53.207124999999991     46.981350000000006     44.320299999999996
H      54.721687000000003     46.044049999999999     46.618100000000005
H      49.064624999999992     47.646749999999983     48.927999999999997
H      44.723424999999992     49.615350000000007     46.616599999999998
H      42.359124999999992     49.861249999999984     46.325799999999994
H      46.741324999999989     44.994650000000007     52.987900000000003
H      46.609825000000001     44.580549999999988     51.200400000000009
H      48.500424999999993     46.879950000000008     52.354599999999998
H      48.580424999999991     45.695650000000001     50.956000000000003
H      42.210324999999997     49.974850000000004     53.875100000000003
H      40.923524999999998     50.782850000000010     54.225900000000003
H      41.404124999999993     51.071449999999999     51.475900000000003
H      40.843824999999995     48.822749999999999     53.752400000000002
H      41.097224999999995     44.350349999999992     55.066800000000001
H      40.922624999999996     43.467749999999995     53.721499999999999
H      43.256724999999989     42.731549999999999     54.518900000000009
H      42.841324999999998     43.107249999999993     53.044600000000010
H      45.518724999999989     43.985649999999993     53.365500000000004
H      45.102424999999997     44.818349999999995     54.671500000000002
H      46.394024999999999     48.392949999999985     46.021499999999996
H      47.948025000000001     47.594149999999985     46.195399999999999
H      40.504525000000001     51.313050000000004     47.598399999999991
H      46.135525000000001     54.175750000000008     45.231999999999999
H      47.773624999999996     54.262850000000000     42.893700000000003
N      46.898824999999988     51.134450000000001     45.167600000000000
N      40.494324999999989     50.378649999999993     48.318300000000001
O      51.016524999999987     41.305449999999993     44.146000000000008
O      48.559424999999990     53.493449999999996     42.706400000000002
O      38.366024999999993     45.540749999999989     53.507500000000000
O      38.599624999999989     50.905549999999991     49.887099999999997
O      46.947224999999989     53.673149999999993     45.655499999999996
