41

C      47.911749999999991     47.122499999999995     46.728949999999990
C      48.979450000000000     46.291899999999998     46.322049999999997
C      48.535150000000002     45.819800000000001     51.253850000000000
C      47.408850000000001     47.599899999999991     48.060749999999999
C      49.812649999999991     45.559399999999997     47.328249999999997
C      48.354450000000000     47.109600000000000     50.514949999999999
C      49.430650000000000     45.481299999999990     50.109449999999995
C      48.254849999999990     46.984999999999999     49.037750000000003
C      49.156950000000002     45.825999999999993     48.654449999999997
C      47.603250000000003     48.040199999999999     45.702950000000001
C      48.303350000000009     48.145499999999998     44.225349999999999
C      49.146950000000004     46.986199999999997     43.891649999999998
C      49.855850000000004     46.189799999999991     45.020249999999997
C      46.624450000000003     49.204700000000003     45.913449999999997
C      46.170650000000002     49.887799999999999     44.641449999999999
C      46.952750000000002     49.897700000000000     43.431249999999999
C      48.195149999999998     49.101199999999992     43.204749999999997
C      45.906350000000003     49.571299999999994     47.157049999999998
C      46.419550000000001     48.740099999999998     48.274549999999998
C      51.087250000000004     45.388300000000001     42.731949999999998
C      49.834250000000011     46.114699999999999     42.945850000000000
C      50.565649999999998     45.370699999999999     44.054349999999999
C      45.180950000000003     50.988900000000001     44.332749999999997
C      47.546450000000000     45.281399999999991     52.196649999999998
C      49.130050000000004     46.028399999999991     52.671250000000001
C      45.238250000000001     50.967500000000001     47.071650000000005
H      50.457349999999991     44.543899999999994     47.253349999999998
H      47.419449999999998     47.182499999999990     51.223550000000003
H      50.462549999999993     45.113000000000000     50.540849999999992
H      46.803550000000001     50.502899999999997     42.497349999999997
H      48.686250000000001     49.032799999999995     42.235050000000001
H      45.938250000000004     48.911099999999990     49.159649999999999
H      51.799849999999999     44.745499999999993     42.408450000000002
H      46.713450000000002     45.681500000000000     52.608549999999994
H      47.561950000000003     44.241500000000002     52.689149999999998
H      49.315250000000006     45.935099999999991     53.764949999999999
H      48.709450000000004     47.082200000000000     52.777149999999999
H      45.958050000000000     51.758499999999998     46.615150000000000
H      44.200150000000001     51.009799999999998     46.320349999999998
H      44.704450000000001     51.327699999999993     47.869549999999990
O      44.261749999999999     51.513399999999990     44.045049999999996
