18

C      48.074749999999995     47.358849999999997     48.147599999999997
C      47.872349999999997     48.757050000000007     48.553699999999999
C      49.179149999999993     46.487650000000002     48.537700000000008
C      48.941249999999997     49.497349999999997     49.243600000000001
C      47.114549999999994     46.751350000000002     47.131399999999999
C      46.669849999999997     49.469850000000008     48.663100000000000
C      50.236149999999995     47.235450000000000     49.192000000000000
C      50.055949999999996     48.645949999999999     49.640599999999999
C      46.118650000000002     47.721950000000007     46.749200000000002
C      45.784350000000003     48.780749999999998     47.850400000000000
H      49.501849999999990     45.515850000000000     48.176200000000001
H      48.864449999999991     50.484150000000000     49.689700000000009
H      47.378450000000001     45.731750000000005     46.701500000000003
H      46.602449999999990     50.392049999999998     48.723800000000004
H      51.253349999999998     46.847149999999999     49.171399999999998
H      50.912350000000004     49.143150000000006     50.198900000000002
H      45.709850000000003     47.680650000000000     45.801099999999998
H      44.746650000000002     49.074550000000002     47.451200000000000
