18

C      48.198949999999989     48.163249999999991     47.275389999999987
C      47.914950000000005     47.820550000000004     48.810069999999996
C      47.777349999999998     49.502550000000006     46.917839999999998
C      48.272549999999995     48.930850000000000     49.797950000000000
C      48.104950000000002     47.207050000000002     46.182699999999997
C      48.055949999999996     46.437549999999995     49.087020000000010
C      47.516149999999996     50.472450000000002     47.869879999999995
C      47.880150000000000     50.256650000000000     49.252189999999999
C      48.019350000000003     45.804350000000007     46.634900000000002
C      47.971549999999993     45.421250000000008     48.037260000000003
H      47.670649999999995     49.628049999999995     45.812269999999998
H      48.209149999999994     48.912749999999996     50.813140000000004
H      48.026750000000007     47.288149999999995     45.186859999999996
H      47.789649999999995     46.061550000000004     50.072240000000008
H      47.426950000000005     51.498650000000005     47.567049999999995
H      47.906649999999999     50.969150000000006     49.972040000000007
H      48.573049999999995     44.750149999999998     46.035579999999996
H      47.797550000000001     44.501349999999995     48.465940000000003
