18

C      48.327484999999996     48.302499999999988     47.692999999999991
C      47.514985000000003     47.967099999999995     48.950999999999993
C      47.935345000000005     49.212199999999996     46.678200000000004
C      46.295245000000001     48.660999999999987     49.219999999999999
C      49.603975000000005     47.709299999999999     47.760300000000001
C      47.761405000000003     46.677899999999994     49.619000000000000
C      46.651855000000005     49.926099999999991     46.871899999999997
C      46.074365000000000     49.661899999999996     48.128100000000003
C      50.031344999999995     46.666399999999996     48.767399999999995
C      49.047485000000002     46.021499999999996     49.597899999999996
H      48.253275000000002     49.440300000000008     45.649400000000000
H      45.576655000000002     48.540999999999997     50.053799999999995
H      50.425675000000005     48.018299999999996     46.991600000000005
H      47.032575000000001     46.521400000000000     50.350600000000000
H      46.252055000000006     50.603700000000003     46.198899999999995
H      44.983285000000002     49.835800000000006     48.078699999999998
H      51.016714999999998     46.359600000000000     48.802400000000006
H      49.506345000000003     45.396299999999997     50.272599999999997
