37

C      47.665049999999987     49.518534999999986     47.318949999999994
C      48.221949999999993     50.093334999999996     48.551150000000000
C      49.015949999999989     45.167734999999993     49.277850000000001
C      49.727350000000001     45.762934999999999     50.434749999999994
C      48.055149999999998     47.986234999999994     47.218849999999996
C      48.975749999999991     49.280034999999998     49.502449999999996
C      48.540849999999992     45.981335000000001     48.155249999999995
C      49.785550000000001     47.187434999999994     50.649249999999995
C      48.704549999999998     47.415435000000002     48.078950000000006
C      49.448650000000001     47.882634999999993     49.377250000000004
C      46.991649999999993     50.520934999999994     46.559849999999997
C      46.741149999999990     51.819935000000001     47.346350000000001
C      46.731949999999998     51.969634999999997     48.841450000000002
C      47.732849999999999     51.188635000000005     49.223649999999992
C      48.842449999999999     43.727035000000001     49.206150000000001
C      49.693950000000001     42.911034999999998     50.006250000000001
C      50.441649999999996     43.347934999999993     51.125749999999996
C      50.483750000000001     44.770335000000003     51.319050000000004
C      46.556550000000001     50.248535000000004     45.135750000000002
C      45.962249999999997     51.364734999999996     44.508749999999999
C      46.342249999999993     52.647234999999995     45.097250000000003
C      46.604649999999992     53.075834999999998     46.482050000000001
H      47.309749999999994     47.503834999999995     46.388649999999998
H      49.654249999999990     49.975835000000004     50.187049999999999
H      47.825249999999997     45.437534999999997     47.630449999999996
H      50.168549999999996     47.745734999999996     51.722350000000006
H      48.074950000000001     51.440934999999996     50.279550000000000
H      48.127949999999998     43.309134999999998     48.409449999999993
H      49.734749999999991     41.875164999999996     49.836349999999996
H      51.076650000000001     42.598775000000003     51.591049999999996
H      51.003450000000001     45.006635000000003     52.347349999999999
H      46.633849999999995     49.242435000000000     44.731650000000002
H      45.502150000000000     51.163534999999996     43.652650000000001
H      45.736549999999994     53.371735000000001     44.555850000000000
H      46.519350000000003     54.124835000000004     46.876950000000001
H      44.923349999999999     52.663735000000003     49.504149999999996
O      45.895849999999996     52.746935000000008     49.637349999999998
