18

C      47.817200000000000     48.431299999999993     48.654799999999994
C      48.311099999999996     47.727600000000010     47.394900000000000
C      48.964600000000004     48.910300000000007     49.414499999999997
C      49.658000000000001     47.317700000000002     47.223800000000004
C      46.391300000000001     48.513400000000004     48.862100000000005
C      47.406400000000005     47.312600000000003     46.287200000000006
C      50.355699999999999     48.955800000000011     48.968600000000002
C      50.840299999999999     47.924800000000005     47.933000000000000
C      45.610799999999998     47.895000000000010     47.818900000000006
C      46.009200000000007     47.709000000000003     46.450200000000002
H      48.703500000000005     49.113700000000009     50.474899999999998
H      49.902100000000004     46.684899999999999     46.269100000000002
H      45.957999999999998     49.060000000000002     49.716400000000000
H      48.093000000000004     46.725900000000010     45.525100000000002
H      51.096299999999999     49.315100000000001     49.762800000000006
H      51.364499999999992     47.034000000000006     48.376200000000004
H      44.635500000000008     47.590699999999998     48.215600000000002
H      44.998900000000006     47.409599999999998     46.029299999999999
