18

C      48.643400000000000     47.745199999999997     48.418874999999993
C      47.383300000000006     48.429799999999993     47.863534999999999
C      49.334800000000001     47.009399999999999     47.472324999999998
C      46.675399999999996     48.416699999999999     46.702024999999999
C      49.575800000000001     47.846200000000003     49.650985000000006
C      46.677599999999998     48.996900000000004     49.000475000000009
C      48.771899999999988     47.185600000000001     46.001564999999999
C      47.469300000000004     47.608499999999999     45.755625000000002
C      48.903700000000001     48.857400000000005     50.420884999999998
C      47.517600000000002     49.334800000000008     50.185315000000003
H      49.901899999999998     46.274200000000000     47.900514999999999
H      45.852500000000006     49.081500000000005     46.626784999999998
H      50.349599999999995     47.312400000000004     50.278244999999998
H      45.650400000000005     49.529800000000002     48.514825000000002
H      49.223100000000002     46.544600000000003     45.229775000000004
H      46.928300000000007     47.509000000000000     44.800615000000001
H      49.638300000000001     49.093200000000003     51.199384999999999
H      46.840599999999995     49.725800000000000     50.842785000000006
