14

C      49.509599999999992     47.912899999999993     47.896599999999992
C      49.056500000000000     49.003700000000002     48.674400000000006
C      47.645299999999992     48.971799999999995     48.782000000000004
C      46.828199999999995     48.051899999999996     48.240200000000002
C      47.256599999999992     46.956300000000006     47.198900000000002
C      50.241399999999999     49.196999999999996     48.042200000000001
C      46.340899999999991     46.482199999999999     48.282099999999993
H      47.412199999999999     49.665500000000002     49.744000000000000
H      46.874099999999999     46.798600000000000     46.256000000000000
H      50.612600000000000     50.062300000000000     47.636200000000002
H      46.917400000000001     45.937700000000000     48.864200000000004
H      45.387400000000000     46.128899999999994     48.201100000000004
H      49.442799999999991     45.981100000000005     46.638500000000001
N      48.851199999999992     46.909100000000002     47.020800000000001
