18

C      48.090749999999993     48.372199999999985     48.258099999999985
C      47.776550000000000     47.001199999999997     47.743500000000004
C      48.065349999999995     49.491500000000002     47.257600000000004
C      47.079449999999994     46.869600000000005     46.487400000000001
C      48.766249999999999     48.600799999999992     49.580800000000004
C      47.500649999999993     46.138800000000003     48.896399999999993
C      47.685850000000002     49.207300000000004     45.926099999999998
C      47.053349999999995     47.940200000000004     45.645500000000006
C      48.896450000000002     47.420900000000003     50.391500000000001
C      48.064250000000001     46.291600000000003     50.245600000000003
H      48.496049999999997     50.524699999999996     47.512499999999996
H      46.710349999999991     45.743899999999996     46.280799999999992
H      49.191549999999992     49.514099999999999     49.876600000000003
H      46.544950000000000     45.475300000000004     48.876500000000000
H      47.616149999999990     50.134799999999998     45.343399999999995
H      46.442650000000000     47.528899999999993     44.695699999999995
H      49.557350000000000     47.613500000000002     51.304300000000005
H      47.812950000000001     45.491699999999994     50.994700000000002
