18

C      47.814849999999993     47.521924999999996     47.823549999999997
C      48.465750000000014     48.799405000000007     48.237749999999998
C      47.577650000000006     46.414895000000001     48.743749999999999
C      48.831850000000017     48.918745000000001     49.675050000000006
C      47.199350000000010     47.337235000000007     46.485250000000001
C      48.604550000000017     49.803235000000015     47.164750000000005
C      48.165450000000007     46.510874999999999     50.068549999999995
C      48.442050000000009     47.863685000000004     50.705549999999995
C      47.268250000000009     48.312235000000015     45.447150000000001
C      48.022750000000016     49.439675000000008     45.892950000000006
H      47.513750000000002     45.247365000000002     48.466550000000005
H      49.316350000000000     49.925395000000009     50.127050000000004
H      46.683650000000000     46.302255000000002     46.274350000000005
H      48.850850000000008     50.752634999999998     47.347850000000001
H      48.141550000000009     45.578035000000000     50.744250000000001
H      48.772450000000006     47.953295000000011     51.606850000000001
H      47.018950000000004     48.218105000000008     44.393149999999999
H      48.226950000000016     50.097845000000007     44.948050000000002
