18

C      47.619564999999987     48.367649999999998     48.271079999999998
C      48.753007000000011     47.697850000000003     47.632860000000008
C      46.978465000000000     47.876950000000001     49.588329999999999
C      49.331514000000013     46.512250000000002     48.182870000000008
C      46.730464999999995     49.364850000000004     47.621390000000005
C      49.302383000000006     48.231050000000003     46.359520000000003
C      47.720765000000000     46.735250000000001     49.991560000000007
C      48.969627000000003     46.077050000000007     49.561109999999999
C      47.373665000000003     49.804650000000002     46.536619999999999
C      48.613473999999997     49.319349999999993     45.861339999999998
H      46.064165000000003     47.996950000000005     49.940680000000000
H      50.231305000000006     46.076750000000004     47.853319999999997
H      45.765664999999998     49.779149999999994     48.215820000000008
H      50.234335000000002     47.760150000000003     45.969120000000004
H      47.450864999999993     46.207050000000002     50.874989999999997
H      49.074963999999994     45.312249999999999     50.263570000000001
H      47.177864999999997     50.687750000000001     46.037329999999997
H      49.156267000000000     49.897150000000003     45.125010000000003
