5

C      48.509199999999993     47.605549999999994     47.466149999999999
H      46.562800000000003     48.684049999999999     47.969250000000002
H      47.031399999999998     47.315950000000001     49.170649999999995
N      47.415100000000002     47.963149999999999     48.283950000000004
O      49.437199999999997     47.429850000000002     46.829350000000005
