32

C      48.986560499999996     48.136449999999996     48.879018549999991
C      49.412710500000017     48.701450000000001     47.536718550000003
C      45.098810499999999     47.244949999999996     46.659418549999998
C      47.892530500000007     47.253449999999994     49.127618549999994
C      48.617250500000011     48.426949999999998     46.422318550000000
C      45.477510500000008     47.225550000000005     48.079618550000006
C      46.061200499999998     47.998550000000002     45.847918550000003
C      46.907680500000012     47.456750000000007     48.022418549999998
C      47.258370500000012     47.956550000000000     46.622318550000003
C      50.069230500000018     48.547350000000002     49.802418549999999
C      51.450190500000005     48.869149999999998     50.107018550000006
C      50.863080500000009     49.686150000000005     49.070218549999993
C      43.927451500000004     47.857450000000007     47.337218550000003
C      44.690480500000007     46.212550000000000     49.122818550000005
C      44.681260500000008     45.821050000000007     45.941518549999998
C      52.491160500000007     49.958750000000002     49.245018549999998
H      51.466050500000009     48.828150000000001     51.233281450000007
H      47.613220500000011     46.807449999999996     50.106318549999997
H      48.966330500000012     48.787749999999996     45.433018550000000
H      46.064880500000001     47.906250000000007     44.766718549999993
H      43.167259500000000     47.177150000000005     47.567318549999996
H      43.637862500000011     48.990150000000007     47.219118550000005
H      44.370050500000005     45.092350000000003     48.782018550000004
H      43.991076500000005     46.750549999999997     49.810918549999997
H      45.652070500000008     46.168650000000007     49.836118549999995
H      45.589320499999999     45.335250000000002     45.529118550000007
H      43.997860500000002     46.274250000000002     45.208918549999993
H      44.167970500000010     45.084949999999999     46.512518549999996
H      52.832740500000000     50.690850000000005     50.147418549999998
H      52.687040500000009     50.915050000000001     48.532018550000004
H      50.324620500000009     50.729250000000000     47.323818549999999
N      50.509510500000005     49.658549999999998     47.536418549999993
