18

C      48.653549999999996     47.299449999999993     48.006699999999995
C      47.536650000000002     48.332949999999997     47.950100000000006
C      49.815450000000006     47.277649999999994     47.206600000000009
C      47.837849999999996     49.580249999999992     47.191600000000008
C      48.122949999999996     46.480149999999995     49.181899999999999
C      46.557850000000002     48.786549999999991     48.881900000000002
C      49.834650000000003     48.365049999999997     46.194600000000008
C      49.133850000000002     49.455649999999991     46.564400000000006
C      46.771149999999999     46.597549999999998     49.857600000000005
C      46.022050000000000     47.831949999999992     49.872900000000001
H      50.705750000000002     46.447150000000008     47.191200000000009
H      47.205549999999995     50.500649999999993     47.174599999999998
H      48.656450000000000     45.499350000000007     49.295900000000017
H      45.842849999999999     49.653350000000003     48.643200000000007
H      50.545650000000002     48.243949999999998     45.343699999999998
H      49.025749999999995     50.376149999999996     45.796599999999998
H      46.603050000000003     45.919250000000005     50.656300000000002
H      45.294249999999998     47.819949999999992     50.645600000000016
