18

C      48.404049999999998     47.929899999999989     47.404704999999993
C      47.217750000000002     47.943999999999996     48.396805000000001
C      48.221750000000007     47.254899999999999     46.217095000000000
C      46.012850000000007     47.130299999999998     48.016504999999995
C      49.634750000000004     48.415200000000006     48.056704999999994
C      47.500050000000009     48.458099999999995     49.882104999999996
C      46.932350000000007     47.177299999999995     45.436525000000003
C      45.967250000000000     46.964599999999997     46.553574999999995
C      49.815150000000010     48.801499999999997     49.460404999999994
C      48.721850000000011     48.878800000000005     50.485704999999996
H      49.013350000000010     46.892800000000001     45.485574999999997
H      45.220950000000009     47.152600000000000     48.720704999999995
H      50.479649999999999     48.329799999999999     47.293205000000000
H      46.733250000000005     48.349600000000002     50.569104999999993
H      46.718350000000008     46.875499999999995     44.434894999999997
H      44.933050000000001     47.103699999999996     45.915084999999991
H      51.066949999999999     49.124500000000005     49.791004999999998
H      48.675950000000007     48.941899999999997     51.565105000000003
