18

C      47.462429999999998     48.295999999999992     47.613299999999988
C      48.307450000000010     47.383099999999999     48.429100000000005
C      48.030250000000002     48.925699999999999     46.391999999999996
C      49.755070000000011     47.463499999999996     48.077199999999991
C      46.059370000000001     48.500099999999996     48.082499999999996
C      48.013350000000010     46.666800000000002     49.646100000000004
C      49.415559999999992     49.383600000000008     46.356499999999997
C      50.343950000000000     48.544399999999996     47.068300000000001
C      45.622039999999998     47.494399999999999     48.947699999999998
C      46.576090000000001     46.679000000000002     49.688500000000005
H      47.203279999999999     49.155200000000001     45.557800000000000
H      50.590350000000001     46.893400000000000     48.462199999999996
H      45.537070000000000     49.370100000000001     47.730199999999996
H      48.892099999999992     46.173999999999999     50.335099999999997
H      49.810229999999997     50.022700000000000     45.470500000000001
H      51.410879999999999     48.829799999999999     46.827399999999997
H      44.589120000000001     47.601999999999997     49.081800000000001
H      46.270119999999999     45.977300000000000     50.529499999999999
