18

C      47.796499999999995     48.388300000000001     48.685849999999995
C      47.501199999999997     48.375930000000011     47.236049999999999
C      47.314700000000002     47.165490000000005     49.483449999999991
C      46.610199999999992     47.360330000000005     46.755949999999999
C      48.380099999999999     49.567270000000008     49.334150000000008
C      48.337399999999988     49.320999999999998     46.459949999999999
C      46.772199999999998     45.994210000000010     48.995750000000001
C      46.366199999999992     46.122810000000001     47.575249999999997
C      49.000599999999991     50.519109999999998     48.324550000000002
C      48.954799999999992     50.456010000000006     46.948450000000001
H      46.676499999999990     44.859890000000007     49.476450000000000
H      47.809199999999990     47.384200000000007     50.537050000000001
H      46.405000000000001     47.458930000000009     45.753450000000001
H      48.700499999999991     49.644989999999993     50.379049999999999
H      48.151199999999989     49.104320000000001     45.462949999999999
H      46.346000000000004     45.235510000000005     47.002150000000000
H      49.653999999999996     51.000410000000002     48.972549999999998
H      49.592199999999991     51.140109999999993     46.269649999999999
