20

C      47.567799999999991     50.265599999999992     45.489649999999997
C      48.296299999999995     47.918799999999997     49.101249999999993
C      47.713900000000002     47.655700000000003     47.792449999999988
C      49.318700000000000     46.980300000000007     49.838449999999995
C      48.130599999999994     46.433000000000000     47.048749999999998
C      47.549399999999999     48.843600000000002     49.858049999999992
C      46.879100000000001     48.859299999999998     47.703649999999996
C      49.943000000000005     46.231100000000005     48.875950000000003
C      49.504100000000001     46.017900000000004     47.429549999999992
C      46.600900000000003     49.551499999999997     48.947149999999993
C      46.307300000000005     49.502299999999998     46.340949999999992
H      49.692299999999996     47.154000000000003     50.786550000000005
H      47.573399999999999     46.021200000000000     46.273650000000004
H      47.695599999999999     49.202900000000007     50.950249999999997
H      45.408300000000004     49.983300000000007     46.349850000000004
H      50.591699999999996     45.683699999999995     49.291249999999991
H      49.995399999999997     45.301700000000004     46.814049999999995
H      45.828200000000002     50.275799999999997     48.949349999999995
H      46.346299999999999     48.646999999999998     45.517749999999992
O      48.522399999999998     50.698299999999996     45.049750000000003
