18

C      47.371298999999993     47.775409999999994     47.730109999999996
C      48.766989999999993     48.148780000000002     48.104710000000004
C      46.283000000000001     47.456550000000007     48.800009999999993
C      49.025909999999996     48.726070000000007     49.471210000000006
C      47.115956999999995     47.117869999999996     46.484209999999997
C      49.742609999999999     48.276030000000006     47.105510000000002
C      46.644994299999993     48.162670000000006     49.934910000000009
C      47.877099999999999     48.842150000000004     50.414110000000001
C      48.189869999999985     47.168670000000006     45.474010000000000
C      49.258639999999986     48.218820000000008     45.708310000000004
H      45.367900000000006     47.085300000000004     48.658009999999997
H      49.965350000000001     48.797780000000003     49.909910000000004
H      46.110500000000016     46.560789999999997     46.169910000000002
H      50.632099999999994     48.642080000000007     47.375309999999999
H      46.110600000000019     48.283490000000015     50.790410000000001
H      47.972009999999997     49.548720000000003     51.329410000000003
H      48.275669999999991     46.451279999999997     44.670589999999997
H      49.887779999999992     48.362319999999997     44.947760000000002
