18

C      47.176349999999985     47.636549999999993     47.706469999999996
C      48.571049999999993     47.767049999999998     48.207730000000012
C      46.656249999999993     48.393349999999998     46.657420000000002
C      49.429749999999991     48.751949999999994     47.469140000000010
C      46.416949999999993     46.697649999999996     48.608960000000010
C      49.356249999999996     47.433149999999998     49.414730000000006
C      47.490949999999991     49.125550000000004     45.848170000000010
C      48.870649999999991     49.397449999999992     46.378460000000004
C      46.973449999999993     46.215649999999997     49.814710000000005
C      48.309350000000002     46.698949999999996     50.137970000000010
H      45.568649999999998     48.349049999999991     46.437370000000001
H      50.538350000000001     48.808049999999994     47.806900000000013
H      45.461649999999999     46.544749999999993     48.299620000000019
H      50.388950000000001     47.557450000000003     49.532820000000001
H      47.155449999999995     49.683149999999998     45.014730000000000
H      49.486849999999997     50.121150000000000     45.786250000000010
H      46.133949999999992     45.878850000000000     50.613090000000000
H      48.910049999999991     46.378850000000000     50.985270000000000
