9

C      48.852849999999989     47.767299999999999     46.874949999999991
C      47.529350000000008     48.337599999999995     47.390349999999998
C      47.384550000000004     47.783400000000000     48.874150000000000
H      47.350350000000006     49.370099999999994     47.231349999999999
H      46.437750000000008     47.484300000000005     46.882450000000006
H      46.303849999999997     47.632300000000001     48.991949999999996
H      47.340950000000007     48.533200000000001     49.675249999999998
H      47.833849999999998     46.629900000000006     49.196350000000002
O      49.696150000000003     47.298400000000001     46.324750000000002
