18

C      47.664999999999999     47.660099999999993     48.634511000000003
C      48.189200000000000     48.525599999999997     47.427250000000001
C      47.181800000000003     46.410200000000003     48.231160000000017
C      48.084500000000006     48.186599999999999     46.040450000000007
C      48.019000000000005     48.024099999999997     49.939540000000008
C      48.655799999999999     49.896000000000001     47.679156200000008
C      47.188900000000004     45.951099999999997     46.835549999999998
C      47.600999999999999     46.753200000000000     45.762750000000025
C      48.436400000000006     49.379799999999989     50.148300000000006
C      48.757800000000003     50.265400000000000     49.066870000000009
H      46.738600000000005     45.705299999999994     48.951780000000014
H      48.600200000000001     49.050700000000006     45.528050000000036
H      47.799500000000009     47.917299999999997     51.040370000000024
H      49.149300000000011     50.344299999999990     46.794750000000008
H      47.143900000000002     44.821399999999997     46.683150000000012
H      47.642499999999998     46.078099999999999     44.829449999999994
H      48.556000000000012     49.581699999999998     51.170550000000006
H      49.261399999999995     51.178600000000003     49.156940000000006
