18

C      47.527299999999997     47.591049999999996     47.943249999999999
C      48.823399999999992     47.764350000000000     47.505150000000000
C      46.311799999999991     47.610250000000001     47.116849999999999
C      49.151799999999994     48.344250000000009     46.225250000000003
C      46.943799999999996     47.701349999999998     49.350549999999998
C      49.629799999999989     47.409750000000010     48.733050000000006
C      46.598199999999991     48.351050000000008     45.892250000000004
C      47.993399999999994     48.562550000000009     45.480850000000004
C      47.812899999999999     47.551150000000000     50.471249999999998
C      49.193799999999996     47.204150000000006     50.087550000000007
H      45.328000000000003     47.172550000000008     47.509950000000003
H      50.203299999999999     48.622650000000000     46.018749999999997
H      46.056199999999990     48.233750000000008     49.709149999999994
H      50.671999999999997     47.017850000000003     48.324050000000000
H      45.883299999999991     48.650250000000007     45.053049999999999
H      48.079499999999996     48.982149999999997     44.621049999999997
H      47.676099999999991     47.023350000000001     51.378950000000003
H      49.768199999999993     47.146750000000004     50.911249999999995
