10

C      48.446949999999987     49.770349999999993     48.593249999999998
C      47.831949999999992     48.329149999999991     48.133020000000002
C      48.703749999999999     46.643650000000001     46.713949999999997
H      48.805849999999992     49.933249999999994     49.645449999999997
H      47.726649999999992     50.505450000000003     48.608849999999990
H      49.212150000000008     50.322650000000003     47.875349999999997
H      47.736649999999997     47.472549999999991     48.760249999999999
H      46.787849999999992     48.662349999999996     47.685980000000001
O      48.934950000000001     47.823149999999991     46.999660000000006
O      48.571849999999998     45.494549999999997     46.354550000000003
