18

C      47.540999999999990     48.134299999999996     47.825099999999992
C      48.629099999999994     47.422699999999999     47.883600000000008
C      46.394700000000000     47.966200000000008     46.806000000000004
C      49.113100000000003     46.521099999999997     46.852800000000009
C      47.281999999999996     49.165300000000009     48.807800000000007
C      49.468899999999991     47.583300000000001     49.104000000000006
C      46.855599999999995     46.992200000000004     45.899900000000009
C      48.137199999999993     46.327900000000007     45.920000000000009
C      47.980400000000003     49.256599999999999     49.982100000000010
C      48.994000000000000     48.286800000000007     50.261100000000006
H      45.873800000000003     48.671200000000006     46.230700000000006
H      50.005399999999995     46.155500000000011     46.629399999999997
H      46.672399999999996     49.955300000000001     48.285800000000002
H      50.126199999999997     46.670400000000008     48.936700000000009
H      46.446299999999994     46.976300000000002     44.848800000000004
H      48.506799999999998     46.044699999999999     44.976500000000009
H      47.819500000000005     49.833599999999997     50.877600000000008
H      49.515799999999999     48.164600000000000     51.151199999999996
