18

C      47.529849999999982     48.132399999999990     47.311149999999991
C      48.173649999999988     47.608300000000000     48.554050000000004
C      48.247949999999996     49.014000000000003     46.576549999999997
C      49.622349999999990     47.400199999999998     48.599350000000001
C      46.211949999999995     47.778199999999998     46.966549999999998
C      47.285649999999990     47.236199999999997     49.623750000000001
C      49.761749999999999     48.971699999999998     46.500050000000002
C      50.348449999999993     48.118000000000002     47.541749999999993
C      45.307749999999992     47.020400000000002     47.827349999999996
C      45.861749999999994     47.053199999999997     49.164950000000005
H      47.735149999999997     49.480899999999998     45.820149999999998
H      50.220049999999993     46.832400000000000     49.350549999999998
H      46.039649999999995     48.098799999999997     45.926149999999993
H      47.604250000000000     46.708100000000002     50.433949999999996
H      50.438349999999993     49.395400000000002     45.566050000000004
H      51.540650000000007     48.140200000000000     47.500050000000002
H      44.459349999999993     46.519100000000002     47.614049999999992
H      45.375049999999995     46.598500000000001     49.809649999999991
