18

C      48.759499999999989     47.381499999999996     48.216949999999997
C      48.400799999999997     48.418500000000009     47.241849999999999
C      48.312400000000004     46.135100000000008     47.769950000000001
C      47.276900000000005     48.254800000000003     46.465250000000005
C      49.673499999999997     47.996300000000005     49.239750000000001
C      48.885200000000005     49.785499999999999     47.295349999999999
C      47.238300000000002     45.805999999999997     46.881450000000001
C      46.620200000000004     46.974299999999999     46.193750000000001
C      50.005000000000003     49.478999999999999     49.456949999999999
C      49.603000000000002     50.360799999999998     48.340850000000003
H      49.050400000000003     45.362600000000000     48.321149999999996
H      46.950700000000005     48.987499999999997     45.694250000000004
H      50.266900000000000     47.893200000000007     50.316650000000003
H      48.641600000000004     50.441000000000003     46.486450000000005
H      46.702400000000004     44.641700000000000     46.863450000000000
H      45.620799999999996     46.765799999999999     45.642749999999999
H      50.379200000000004     49.916700000000006     50.357250000000001
H      49.898500000000006     51.358300000000000     48.302050000000001
