18

C      48.744849999999992     47.305750000000003     48.575639999999993
C      48.276350000000008     48.727550000000001     48.307380000000002
C      49.193150000000003     46.365150000000007     47.541370000000001
C      49.005650000000003     49.343150000000001     47.223770000000002
C      47.924050000000008     46.698950000000004     49.644659999999995
C      47.649450000000002     49.638950000000001     49.336480000000002
C      49.467150000000004     47.215049999999998     46.362470000000002
C      49.787050000000008     48.622850000000007     46.185099999999998
C      46.859949999999998     47.428150000000009     50.242029999999993
C      46.709350000000001     48.861350000000009     50.123430000000006
H      49.515150000000006     45.253650000000000     47.793349999999997
H      49.135350000000003     50.353250000000010     47.406880000000001
H      48.210049999999995     45.685150000000000     49.791210000000000
H      47.677850000000007     50.746350000000000     49.184500000000000
H      49.550150000000002     46.502749999999999     45.411790000000003
H      50.129249999999999     49.108950000000000     45.231830000000002
H      45.949350000000003     47.005950000000006     50.768169999999998
H      45.870750000000001     49.353950000000005     50.525929999999995
