18

C      48.348599999999983     48.417199999999994     48.682249999999996
C      47.671199999999999     47.970300000000002     47.421050000000001
C      48.785100000000000     49.844100000000005     48.584150000000001
C      46.947699999999998     48.646500000000003     46.413249999999998
C      48.723199999999991     47.489600000000003     49.773450000000004
C      47.531300000000002     46.403500000000001     47.383850000000002
C      48.058300000000003     50.663599999999995     47.621050000000004
C      47.274799999999999     50.091300000000004     46.499850000000002
C      48.414900000000003     46.180500000000002     49.698850000000000
C      47.796599999999998     45.445100000000004     48.565449999999998
H      49.612600000000000     50.282199999999996     49.056149999999995
H      46.387400000000000     48.198500000000003     45.475950000000005
H      49.404799999999994     47.785000000000004     50.439749999999997
H      47.304000000000002     45.862800000000000     46.541850000000004
H      48.382999999999996     51.649200000000000     47.675550000000001
H      47.315399999999997     50.444900000000011     45.555750000000003
H      49.058399999999992     45.584600000000002     50.524049999999995
H      47.819400000000002     44.350800000000000     48.494750000000003
