18

C      47.699349999999988     47.585499999999996     48.303269999999998
C      47.863749999999996     48.935900000000011     48.033349999999999
C      46.836950000000002     46.282600000000009     48.392690000000002
C      46.362649999999995     49.063099999999999     48.038390000000000
C      49.079949999999997     47.226400000000005     48.503590000000010
C      48.953950000000006     49.755299999999998     47.660609999999998
C      45.509749999999997     46.686300000000010     48.250900000000001
C      45.285350000000001     48.164300000000004     47.963000000000001
C      50.465949999999992     47.879600000000003     48.254370000000002
C      50.268249999999995     49.121299999999998     47.786239999999999
H      47.025649999999999     45.273800000000001     48.774769999999997
H      45.981349999999999     50.193600000000011     47.960439999999998
H      48.655850000000001     46.157400000000003     48.857289999999999
H      48.802450000000007     50.726199999999999     47.142710000000001
H      44.767749999999999     45.973599999999998     48.127540000000003
H      44.363450000000000     48.727100000000000     47.976460000000003
H      51.636550000000000     47.668900000000001     48.091540000000002
H      51.200549999999993     49.685499999999998     47.405059999999999
