5

C      47.917799999999993     47.784099999999995     47.766509999999997
H      47.798199999999994     48.824199999999998     47.306340000000006
H      46.975600000000000     47.175800000000002     47.458479999999994
H      49.024400000000000     47.346700000000006     47.714960000000005
H      47.627600000000001     47.736499999999999     48.693659999999994
