18

C      48.198549999999997     48.794949999999993     48.253449999999994
C      48.007250000000006     47.351749999999996     48.271150000000006
C      49.162250000000007     49.243150000000000     49.297350000000009
C      48.869350000000004     46.422550000000001     48.922450000000012
C      47.535750000000000     49.545149999999992     47.189750000000004
C      46.743350000000000     46.844749999999998     47.803850000000004
C      50.099250000000005     48.304249999999996     49.850349999999999
C      49.813449999999996     46.881749999999997     49.898450000000011
C      46.569750000000006     48.740049999999997     46.441549999999999
C      45.957050000000002     47.511249999999997     46.903350000000003
H      49.208750000000002     50.372850000000000     49.362650000000002
H      48.548449999999995     45.391949999999994     48.809350000000009
H      47.815050000000006     50.608050000000006     46.842550000000003
H      46.546650000000007     45.810849999999995     48.112250000000003
H      50.994549999999997     48.647649999999999     50.497349999999997
H      50.389149999999994     46.018049999999995     50.265850000000000
H      46.230349999999994     49.090249999999997     45.502650000000003
H      45.005450000000003     47.260050000000000     46.433650000000000
