18

C      48.613399999999992     47.731799999999993     48.303349999999988
C      47.779399999999995     48.422400000000003     47.357349999999997
C      49.645700000000005     46.872500000000002     48.015249999999995
C      47.710599999999999     48.107199999999999     45.894350000000003
C      48.471800000000002     48.182400000000008     49.647350000000003
C      46.673800000000000     49.341000000000001     47.928849999999997
C      49.697900000000004     46.691600000000001     46.550350000000009
C      48.671199999999999     47.129899999999999     45.648049999999998
C      47.482200000000006     49.112299999999998     50.177750000000003
C      46.510099999999994     49.696899999999992     49.294849999999997
H      50.449900000000000     46.240600000000001     48.715350000000001
H      47.185400000000001     48.671600000000005     45.062750000000008
H      49.182400000000001     47.678699999999999     50.298450000000003
H      46.450599999999994     49.971499999999999     47.064250000000001
H      50.616000000000000     46.028500000000001     46.067250000000001
H      48.921899999999994     46.895000000000003     44.720050000000001
H      47.437799999999996     49.296399999999998     51.279949999999999
H      45.384000000000000     49.785499999999992     49.582350000000005
