18

C      48.026899999999998     47.728549999999991     47.442946499999977
C      48.308300000000003     47.828649999999996     48.817446500000003
C      48.753200000000007     46.668350000000004     46.645646499999998
C      49.080799999999996     46.979650000000007     49.622046499999996
C      47.242699999999999     48.333849999999998     46.490546499999994
C      47.720600000000005     49.117149999999995     49.325246499999992
C      49.356000000000009     45.722049999999996     47.488846499999994
C      49.481600000000000     45.884850000000000     49.046846500000001
C      46.554600000000008     49.413250000000005     47.173446499999997
C      46.911100000000005     49.860450000000000     48.511546499999994
H      48.951799999999992     46.654849999999996     45.578746499999994
H      49.591899999999995     46.891249999999999     50.625653499999999
H      47.019199999999998     48.070750000000004     45.374346500000001
H      47.621099999999998     49.489450000000005     50.390023500000012
H      49.873100000000008     44.980050000000006     47.006146500000000
H      49.886399999999995     44.958349999999996     49.645646499999998
H      46.113600000000005     50.010850000000005     46.537146499999992
H      46.142899999999997     51.041650000000004     48.523246499999999
