18

C      48.807349999999992     47.636099999999985     48.250849999999993
C      47.424450000000000     47.917799999999993     48.322550000000007
C      49.651449999999997     48.744399999999992     48.701549999999997
C      46.916249999999998     49.230399999999996     48.843750000000000
C      49.129450000000006     46.194600000000001     47.904750000000007
C      46.299950000000003     47.141900000000000     47.758850000000010
C      49.123149999999995     50.099399999999996     49.018150000000006
C      47.712649999999996     50.317100000000003     49.210149999999999
C      48.161349999999999     45.470300000000002     47.099550000000001
C      46.805450000000000     45.922599999999996     47.118550000000006
H      50.679249999999996     48.602499999999999     48.828350000000000
H      45.871650000000002     49.473099999999995     48.872550000000004
H      50.203549999999993     46.162199999999991     47.925150000000002
H      45.320750000000004     47.515999999999998     47.906050000000008
H      50.020650000000003     50.447499999999998     49.485450000000000
H      47.081249999999997     51.315599999999996     49.561549999999997
H      48.784250000000000     44.684400000000004     46.438450000000003
H      46.000050000000002     45.359900000000003     46.452850000000005
