18

C      48.623299999999986     47.921144999999996     47.636749999999992
C      47.440899999999999     48.566744999999997     48.153050000000000
C      48.640599999999999     47.311445000000006     46.228149999999999
C      46.231600000000000     48.705044999999998     47.321649999999998
C      49.807200000000002     47.849945000000005     48.573950000000004
C      47.185599999999994     49.046745000000001     49.664849999999994
C      47.540899999999993     47.472065000000001     45.480350000000001
C      46.369899999999994     48.163044999999997     46.016349999999996
C      49.582899999999988     48.745144999999994     49.687350000000002
C      48.293599999999998     49.011444999999995     50.463150000000006
H      49.263499999999993     46.594655000000003     45.978549999999998
H      45.397700000000000     49.218145000000007     47.373950000000001
H      50.618900000000004     47.457644999999999     48.096150000000002
H      46.126999999999995     49.347245000000001     50.036049999999996
H      47.461199999999998     47.060545000000005     44.372650000000000
H      45.381099999999996     48.676744999999997     45.501849999999997
H      50.403200000000005     49.405344999999997     50.208750000000002
H      48.564000000000000     49.053545000000000     51.627350000000000
