70

C      44.395149999999994     53.346604999999997     47.065399999999990
C      44.141550000000002     53.010404999999992     49.355800000000002
C      47.919449999999998     47.552475000000015     49.051400000000001
C      49.444450000000003     47.411075000000011     49.224299999999999
C      47.507550000000002     51.502566700000003     49.634900000000002
C      47.385049999999993     48.951975000000004     49.224699999999999
C      50.212450000000004     48.596474999999984     49.504899999999999
C      46.071349999999995     51.676574000000002     49.610299999999995
C      50.219750000000005     51.312875000000020     49.639899999999997
C      48.175650000000005     50.196475000000021     49.428100000000001
C      49.610050000000001     50.032674999999998     49.546099999999996
C      47.288049999999998     46.317775000000012     48.602100000000000
C      47.942950000000003     45.056375000000003     48.231400000000008
C      49.493549999999999     45.035975000000008     48.354100000000003
C      50.181049999999999     46.124475000000018     48.833100000000002
C      45.939850000000007     46.381675000000001     48.252600000000001
C      45.206450000000004     45.120474999999999     47.831699999999998
C      45.828050000000005     43.750275000000002     47.826499999999996
C      47.229649999999992     43.809775000000002     48.044100000000000
C      45.279250000000005     47.739175000000003     48.609800000000000
C      45.922750000000001     48.947075000000012     48.910399999999996
C      50.145450000000004     43.670574999999999     48.207099999999997
C      52.118949999999998     44.593675000000019     49.693299999999994
C      51.339050000000000     43.397575000000018     48.917499999999990
C      51.557649999999995     45.858674999999991     49.440899999999999
C      49.356150000000000     42.554775000000006     47.368699999999990
C      47.982849999999999     42.627474999999990     47.685199999999995
C      52.258150000000001     47.153975000000003     49.366299999999995
C      51.641449999999999     48.489975000000015     49.282799999999995
C      43.850250000000003     45.425875000000019     47.451899999999995
C      43.112850000000002     44.355275000000006     46.885700000000000
C      43.795950000000005     43.061374999999984     46.758699999999997
C      45.070450000000008     42.686474999999987     47.203699999999998
C      45.481949999999998     50.386375000000015     49.097000000000008
C      45.294650000000004     52.780325000000005     50.351600000000005
C      43.791150000000002     47.686175000000020     48.307100000000005
C      43.118549999999999     46.664074999999997     47.587099999999992
C      49.668549999999996     52.697234999999992     49.462000000000003
C      48.128250000000008     52.965684999999993     49.596699999999998
C      53.292850000000001     43.998775000000023     50.318799999999996
C      43.699249999999999     53.336294999999993     45.695200000000000
C      42.319550000000000     52.494585000000001     45.660100000000000
H      43.343250000000005     53.763584999999992     49.317200000000000
H      43.472850000000001     52.138863999999998     49.625100000000003
H      51.219450000000009     50.928175000000010     49.497100000000003
H      47.444850000000002     41.742275000000006     47.386699999999990
H      53.375450000000001     47.174475000000001     49.615700000000004
H      52.253250000000008     49.388875000000013     49.140299999999996
H      42.060150000000000     44.539074999999997     46.747599999999998
H      43.134450000000001     42.358675000000005     46.418700000000001
H      45.347550000000005     41.685875000000010     47.158400000000000
H      44.662750000000003     50.115975000000020     48.476500000000001
H      45.120550000000009     52.659714999999991     51.443600000000004
H      45.780250000000002     53.750054999999989     50.263999999999996
H      41.922049999999999     46.904174999999995     47.399100000000004
H      43.333950000000002     48.557074999999998     48.717299999999994
H      50.005150000000000     52.838554999999999     48.366399999999999
H      50.232349999999997     53.457684999999998     49.796300000000002
H      47.990250000000003     53.200215000000000     50.655699999999996
H      47.561149999999998     53.633434999999992     48.845299999999995
H      53.347750000000005     42.927275000000009     50.245800000000003
H      54.242750000000001     44.462575000000015     50.641300000000001
H      42.634450000000001     51.553798000000000     46.109099999999998
H      44.513350000000003     53.399774999999991     44.794300000000000
H      41.957450000000001     53.249354999999994     46.298800000000000
H      41.757249999999999     52.299166000000000     44.556399999999996
H      43.394850000000005     54.314124999999990     45.940700000000000
O      45.024749999999997     53.294584999999998     48.071500000000000
O      49.805949999999996     42.516774999999981     46.261200000000002
O      51.378850000000000     42.358175000000003     49.506399999999999
