18

C      47.335485000000006     48.887949999999989     48.355309999999989
C      48.743915000000008     48.561050000000002     48.435609999999997
C      46.188472000000012     48.500750000000004     49.369309999999999
C      48.982045000000006     47.257550000000002     49.174709999999990
C      46.965035000000007     49.566849999999995     47.060409999999990
C      49.800785000000012     49.049050000000001     47.447909999999993
C      46.524115000000009     47.434249999999999     50.292874000000012
C      47.882755000000010     47.035850000000003     49.892910000000001
C      47.870005000000013     49.026449999999990     45.994009999999989
C      49.368815000000012     48.645750000000000     46.162209999999988
H      45.157604999999997     48.868649999999995     49.443010000000001
H      49.927685000000011     46.790950000000002     49.391109999999998
H      46.048560000000009     49.771149999999999     46.893109999999993
H      50.842395000000003     48.724049999999998     47.708410000000001
H      45.807775000000007     47.085249999999995     50.979790000000008
H      47.869985000000007     46.228850000000001     50.451922000000010
H      47.475335000000008     48.943049999999992     45.020209999999992
H      50.079985000000001     48.416549999999994     45.416709999999995
