38

C      48.325399999999988     44.638494999999985     50.671949999999995
C      48.825200000000002     45.937995000000001     51.309649999999998
C      49.354599999999998     50.982044999999999     46.618350000000000
C      50.351199999999999     51.009685000000005     47.868749999999999
C      48.210699999999996     44.765195000000006     49.230750000000008
C      48.760100000000001     47.136794999999992     50.649750000000004
C      47.470700000000001     47.674194999999997     46.763849999999998
C      48.189199999999992     49.964526000000006     46.435949999999998
C      47.388299999999994     44.990894999999995     46.441250000000004
C      48.416599999999995     48.799295000000001     48.683050000000001
C      47.831799999999994     46.140095000000002     48.712350000000008
C      48.183900000000001     47.520595000000000     49.287050000000001
C      47.604300000000002     46.294394999999994     47.317950000000003
C      47.872199999999999     48.860195000000004     47.284450000000000
C      48.542999999999999     43.837194999999994     48.077750000000002
C      48.346799999999995     44.035494999999997     46.706750000000007
C      46.036600000000000     44.849194999999995     46.025350000000010
C      47.282299999999999     45.277495000000002     44.920949999999998
C      49.101400000000005     52.434475000000006     45.933250000000008
C      48.934999999999995     52.176505000000006     44.435850000000009
H      48.648000000000003     43.808395000000004     51.341050000000003
H      49.184999999999995     46.024194999999992     52.277250000000002
H      50.013100000000001     50.601585000000007     45.752450000000003
H      47.504399999999997     48.270595000000000     45.657850000000003
H      47.435799999999993     50.028106000000008     45.647150000000003
H      49.040699999999994     49.566537000000004     49.330150000000010
H      48.686900000000001     42.720394999999996     48.249749999999999
H      48.819399999999995     43.402694999999994     45.858350000000009
H      45.592700000000001     44.035295000000005     45.976750000000003
H      46.815099999999994     46.166894999999997     44.680850000000000
H      47.152899999999995     44.256195000000005     44.082150000000006
H      47.940099999999994     52.938635000000005     46.364150000000002
H      49.773400000000002     53.279605000000004     46.429450000000010
H      49.416099999999993     51.258185000000012     43.722749999999998
H      48.659699999999994     53.124584999999996     43.889850000000003
H      45.108499999999999     45.242594999999994     45.746150000000007
H      49.088100000000004     48.231994999999998     51.036050000000010
O      50.891500000000001     51.045025000000003     48.769650000000006
