18

C      48.623249999999999     48.696099999999987     48.171499999999995
C      47.626450000000006     47.538800000000002     47.798599999999993
C      49.532150000000001     48.222900000000003     49.124200000000002
C      47.608750000000001     46.205000000000005     48.296099999999996
C      48.718249999999998     50.034699999999994     47.507099999999994
C      46.852750000000000     47.456600000000002     46.645200000000003
C      49.334649999999996     47.010500000000000     50.026199999999989
C      48.538550000000001     46.023699999999998     49.327499999999986
C      47.625249999999994     50.099200000000003     46.438800000000001
C      46.716449999999995     48.915699999999994     46.129399999999990
H      50.058149999999998     49.029400000000003     49.544699999999992
H      46.546650000000000     45.549600000000005     48.050199999999990
H      49.172950000000000     50.913900000000005     47.828699999999998
H      45.941850000000002     46.922800000000002     46.054400000000001
H      49.793249999999986     46.549699999999994     50.860399999999998
H      48.419150000000002     45.086099999999995     49.910899999999998
H      47.268950000000004     50.865000000000002     45.810800000000000
H      46.225549999999998     49.548099999999998     45.139600000000002
