18

C      47.396149999999992     47.863149999999997     48.703599999999994
C      48.707350000000005     47.323950000000004     48.346899999999998
C      46.197649999999996     47.219950000000004     48.040599999999998
C      48.901350000000008     46.118050000000004     47.450699999999998
C      47.828249999999997     49.079350000000005     49.452499999999993
C      49.904750000000007     50.201850000000007     49.881399999999992
C      46.361950000000007     46.041350000000008     47.198599999999999
C      47.739249999999998     45.610849999999999     46.883099999999999
C      49.219450000000009     49.021850000000001     49.594799999999999
C      49.848349999999996     47.953749999999999     48.857700000000001
H      45.051249999999996     47.572250000000004     48.372999999999998
H      49.995350000000002     46.317250000000001     47.001100000000001
H      47.170550000000006     50.074950000000001     49.550900000000006
H      49.497850000000000     51.148550000000000     49.906199999999998
H      45.507950000000008     45.625150000000005     46.707499999999996
H      47.808250000000015     44.851450000000000     46.093800000000002
H      50.948750000000004     50.583950000000002     49.730100000000000
H      50.807150000000007     47.620350000000002     48.751299999999993
