18

C      47.600249999999996     47.686649999999993     46.895600000000002
C      47.128150000000005     48.576350000000005     48.043450000000007
C      49.033850000000001     47.994050000000001     46.538200000000003
C      47.709550000000007     49.797650000000004     47.787500000000009
C      46.829149999999998     46.454549999999998     46.789839999999998
C      46.194450000000003     48.054149999999993     49.065740000000005
C      49.965650000000011     49.079249999999995     46.566460000000006
C      48.994350000000004     49.989349999999988     47.147019999999998
C      45.954950000000004     45.930549999999997     47.873140000000006
C      45.567850000000007     46.750749999999996     48.939929999999990
H      49.405349999999999     47.119650000000000     45.841490000000007
H      47.276650000000004     50.770849999999996     48.209819999999993
H      47.338250000000002     45.675449999999998     46.153930000000003
H      46.003950000000003     48.579749999999997     50.158509999999993
H      51.021749999999997     49.076049999999995     46.500940000000000
H      49.119650000000007     51.113950000000003     47.385450000000006
H      45.783950000000004     44.886049999999997     48.067189999999997
H      44.978250000000003     46.456150000000001     49.715899999999991
