18

C      48.624549999999992     47.822199999999988     48.169014999999987
C      47.419349999999994     48.477500000000006     47.948025000000001
C      49.709249999999997     48.411299999999997     48.860455000000002
C      47.248350000000002     49.906400000000005     48.377085000000008
C      48.704049999999995     46.304600000000008     47.686154999999999
C      46.300750000000001     47.893900000000002     47.394665000000003
C      49.660849999999996     49.863200000000006     48.959994999999992
C      48.459649999999996     50.557900000000004     48.670064999999994
C      47.524949999999997     45.584699999999998     47.400845000000004
C      46.334049999999998     46.461200000000005     47.236064999999996
H      50.611249999999998     47.784099999999995     48.853624999999994
H      46.237949999999998     50.420299999999997     48.560445000000001
H      49.523150000000001     45.743700000000004     47.876655000000000
H      45.388750000000002     48.528000000000006     47.256024999999994
H      50.424149999999997     50.559700000000007     49.266275000000007
H      48.694749999999999     51.640500000000003     48.818984999999998
H      47.718149999999994     44.359499999999997     47.223654999999994
H      45.418250000000000     46.351299999999995     46.733724999999993
