18

C      47.802849999999992     48.761344999999984     48.472149999999992
C      47.329949999999997     47.883219999999987     47.366649999999993
C      47.181049999999999     48.313320000000004     49.669349999999994
C      46.626649999999998     46.644319999999979     47.394549999999995
C      48.916750000000000     49.726559999999992     48.430949999999996
C      47.661650000000002     48.421519999999973     46.061650000000000
C      46.596649999999997     47.005920000000003     49.845249999999993
C      46.369349999999997     46.207919999999987     48.684550000000002
C      49.465949999999999     49.979829999999993     47.203450000000004
C      48.709250000000004     49.433813999999991     46.020749999999992
H      47.168249999999993     49.140377999999984     50.452749999999995
H      46.498249999999999     46.013120000000001     46.533149999999992
H      49.522950000000002     49.987529999999992     49.319149999999993
H      47.055650000000000     48.216920000000002     45.149349999999998
H      46.383749999999999     46.683519999999980     50.850650000000002
H      45.795250000000003     45.250420000000005     48.782449999999997
H      50.204749999999997     50.749579999999995     47.161850000000001
H      49.378749999999989     50.018049999999988     45.240150000000000
