44

C      45.894701499999982     48.632534999999990     44.920999999999992
C      46.212701499999987     50.090965000000011     45.225900000000003
C      49.343301499999988     45.808244999999999     50.808299999999996
C      49.639601499999991     50.753625000000000     50.112400000000001
C      46.207001499999997     47.644865000000010     45.795899999999996
C      49.737501499999986     47.193115000000006     51.180300000000010
C      50.017401499999998     49.567595000000011     50.726900000000008
C      48.826301499999992     45.587805000000003     49.520699999999998
C      47.396701499999999     50.072345000000013     46.152099999999997
C      48.839201499999994     50.606725000000012     48.909399999999998
C      47.304601499999997     46.556295000000006     47.719200000000008
C      49.766501499999997     48.237055000000012     50.130800000000001
C      47.279501499999988     47.700855000000004     46.739699999999992
C      48.259501499999992     46.749395000000007     48.849100000000000
C      47.819301499999987     49.095165000000009     47.051700000000004
C      48.653901499999996     49.293525000000002     48.305599999999998
C      48.945401499999996     48.129435000000001     48.972400000000000
C      45.043801499999994     48.677075000000002     43.700399999999995
C      44.676901499999992     49.761795000000006     42.897199999999998
C      44.954701499999992     51.113025000000007     43.425800000000002
C      45.759201499999996     51.304325000000006     44.526299999999999
C      49.675801499999999     44.707725000000011     51.539800000000007
C      50.398901499999987     44.826824999999999     52.761100000000006
C      50.913401499999999     46.196145000000001     53.149700000000003
C      50.563201499999998     47.380655000000004     52.393999999999998
C      51.212901499999994     48.716955000000013     52.617399999999996
C      50.773001499999999     49.956115000000011     52.116400000000006
C      51.274301500000000     51.063225000000003     52.891599999999997
H      49.725301499999993     51.650925000000015     50.524399999999993
H      45.867501499999996     46.548075000000011     45.543799999999997
H      48.521601499999996     44.560505000000006     49.139200000000002
H      48.142801499999997     50.863025000000007     46.035999999999994
H      48.285901499999987     51.497925000000009     48.678500000000007
H      46.745301499999989     45.659255000000002     47.615299999999998
H      44.736901499999995     47.873165000000000     43.052000000000000
H      44.114201500000000     49.712885000000000     41.910100000000000
H      44.578501499999994     51.854925000000009     42.825899999999997
H      46.004001499999994     52.302424999999999     44.902200000000001
H      49.618401499999997     43.697575000000001     51.314399999999999
H      50.501301499999990     43.976785000000007     53.338400000000000
H      51.221501499999995     46.356765000000010     54.089900000000000
H      51.683674500000002     48.324674999999999     53.653199999999998
H      51.885798500000000     50.577225000000013     53.619999999999997
H      50.943101499999990     52.029925000000006     52.753099999999996
