18

C      47.231399999999994     47.920999999999992     47.636149999999986
C      48.523800000000008     48.270399999999995     48.280349999999999
C      46.948300000000003     46.471999999999994     47.234249999999996
C      49.359899999999996     47.082800000000006     48.678249999999998
C      46.592500000000001     49.154199999999989     47.134749999999997
C      48.814800000000005     49.577699999999993     48.763849999999998
C      47.849299999999999     45.412400000000005     47.235049999999994
C      49.014099999999999     45.827200000000005     48.142149999999994
C      47.081000000000003     50.430999999999997     47.535849999999996
C      48.126300000000015     50.762799999999999     48.501949999999987
H      46.106800000000007     46.217500000000001     46.629649999999998
H      50.328000000000003     47.115799999999993     49.196050000000000
H      45.671999999999997     49.026200000000003     46.589149999999997
H      49.778599999999997     49.301199999999994     49.410850000000003
H      47.817700000000002     44.278300000000002     46.881949999999996
H      49.522100000000009     44.901600000000002     48.384049999999995
H      46.496600000000001     51.241299999999995     47.074249999999999
H      48.516700000000014     51.721699999999998     48.450749999999992
