18

C      48.491499999999995     47.376349999999988     48.296334999999992
C      48.182600000000001     48.755850000000002     48.331434999999999
C      49.314400000000006     46.782150000000009     47.235714999999999
C      48.856800000000007     49.518850000000008     47.460034999999998
C      47.539900000000003     46.506750000000004     49.120135000000005
C      47.120199999999997     49.226649999999999     49.138035000000002
C      50.279800000000002     47.730449999999998     46.609324999999998
C      50.058300000000003     49.154350000000001     46.723325000000003
C      46.295600000000007     47.039549999999998     49.570534999999992
C      45.975099999999998     48.464450000000006     49.623935000000003
H      49.015799999999999     45.844349999999999     46.906755000000004
H      48.558499999999995     50.573450000000001     47.549334999999999
H      47.749600000000001     45.426549999999999     49.237234999999998
H      47.305500000000002     50.191250000000004     49.463735000000000
H      50.961500000000001     47.150250000000007     45.874364999999997
H      50.522099999999995     49.828250000000004     46.121205000000003
H      45.599100000000007     46.381650000000000     49.979435000000002
H      45.038499999999999     48.740349999999999     50.125635000000003
