18

C      48.664949999999990     48.128749999999989     47.848549999999996
C      47.463050000000003     47.508550000000000     47.792349999999999
C      49.554150000000000     48.036549999999998     46.672950000000000
C      47.028149999999997     46.941049999999997     46.560750000000006
C      49.189349999999997     48.879249999999999     49.012650000000001
C      46.471049999999998     47.799250000000001     48.833950000000002
C      49.272950000000002     46.943749999999994     45.630950000000006
C      47.819650000000003     46.744749999999996     45.452550000000002
C      48.339949999999995     49.277050000000003     50.182249999999996
C      47.008949999999999     48.699849999999998     49.816749999999999
H      50.578250000000004     48.251149999999996     46.592150000000004
H      46.012749999999997     46.540449999999993     46.495450000000005
H      50.141950000000001     49.336249999999993     48.895349999999993
H      45.421749999999996     47.690349999999995     48.657550000000001
H      50.112749999999998     46.512249999999995     44.898250000000004
H      47.590150000000001     46.103250000000003     44.740549999999999
H      48.622149999999998     49.896749999999997     51.259450000000001
H      46.407049999999998     49.233249999999998     50.558549999999997
