18

C      47.912949999999988     48.743649999999995     48.165999999999990
C      48.303349999999995     47.352950000000007     48.177499999999995
C      46.519649999999999     49.243449999999996     48.561300000000003
C      47.317349999999998     46.456050000000005     48.485900000000001
C      49.062250000000006     49.655749999999998     47.936599999999999
C      49.574849999999998     46.863150000000005     47.771699999999996
C      45.530549999999998     48.243350000000007     48.669100000000000
C      45.898449999999997     46.877449999999996     48.548900000000003
C      50.414349999999999     49.243849999999995     47.604100000000003
C      50.525749999999995     47.813450000000003     47.322199999999995
H      46.259949999999996     50.209249999999997     48.916799999999995
H      47.414749999999998     45.314949999999996     48.369900000000001
H      48.950549999999993     50.685050000000004     48.283900000000003
H      49.665249999999993     45.837350000000001     48.132499999999993
H      44.456649999999996     48.626149999999996     48.796899999999994
H      45.141949999999994     46.170450000000002     48.568399999999997
H      51.144649999999999     49.924549999999996     47.112600000000000
H      51.543350000000004     47.541550000000001     47.083200000000005
