37

C      48.047099999999986     47.230549999999994     47.015299999999996
C      48.642500000000005     46.854350000000004     48.301000000000009
C      48.085100000000004     47.989150000000002     43.377400000000002
C      47.983299999999993     46.780549999999998     42.584300000000006
C      47.347500000000004     49.555950000000003     48.404299999999999
C      48.167899999999996     47.504150000000003     50.798600000000000
C      48.137899999999995     47.996450000000003     44.897100000000002
C      48.510399999999997     44.381250000000001     42.827400000000004
C      48.179700000000004     46.870150000000002     45.619300000000003
C      48.399600000000000     45.668849999999999     43.497300000000003
C      47.451900000000002     47.764850000000003     48.343200000000003
C      47.680600000000005     46.804750000000006     49.515000000000008
C      48.811299999999996     46.877550000000006     51.981100000000005
C      48.263399999999997     46.129449999999999     50.949900000000007
C      47.471100000000000     50.606349999999999     49.474000000000011
C      46.122800000000005     50.064850000000000     49.142800000000001
C      48.666400000000003     49.729949999999995     49.292800000000007
C      47.646899999999995     52.074549999999995     49.449100000000008
C      48.899099999999997     49.064050000000002     50.638400000000011
C      49.725500000000004     46.902450000000009     53.373500000000000
C      48.421299999999995     45.603749999999998     45.025900000000000
H      47.737599999999993     48.654649999999997     42.538900000000005
H      47.924100000000003     46.732650000000000     41.548999999999999
H      47.867799999999995     49.029649999999997     45.348100000000009
H      45.770400000000002     49.607149999999997     50.196100000000008
H      45.346700000000006     50.897349999999996     49.215400000000010
H      49.649499999999996     50.051250000000003     48.742300000000007
H      48.437400000000004     52.469650000000009     48.730000000000011
H      46.638100000000001     52.525749999999995     49.011400000000002
H      48.184400000000004     52.518350000000005     50.366000000000007
H      49.929799999999993     49.064950000000003     50.887100000000011
H      48.423899999999996     49.669249999999998     51.477000000000011
H      50.653299999999994     46.240050000000004     53.538500000000006
H      50.108299999999993     47.909150000000004     53.212900000000012
H      49.386699999999998     46.705750000000002     54.451000000000001
H      48.321800000000003     44.561650000000007     45.557500000000012
O      48.797999999999995     43.474250000000005     42.231700000000011
