64

C      52.317299999999989     47.241199999999992     46.970900000000000
C      53.448200000000000     46.595199999999998     47.255800000000001
C      46.419300000000007     48.144700000000000     48.420899999999996
C      47.703500000000005     47.390599999999999     48.456899999999997
C      44.846999999999994     44.632100000000001     49.393400000000007
C      45.475499999999997     43.299100000000003     49.046799999999998
C      45.401700000000005     47.227200000000003     49.044900000000005
C      48.041600000000003     45.945100000000004     48.410400000000003
C      44.938600000000008     47.471600000000002     50.438300000000005
C      46.775000000000006     43.457200000000000     48.397399999999998
C      45.723700000000008     45.810699999999997     48.968600000000002
C      46.951400000000007     44.962100000000000     48.538600000000010
C      46.300100000000000     49.475299999999997     47.777999999999999
C      47.919300000000007     49.105499999999999     45.599600000000002
C      48.590999999999994     48.251199999999997     46.430399999999999
C      48.958600000000004     47.855399999999996     47.780499999999996
C      43.644700000000000     44.709299999999999     50.173700000000004
C      42.997299999999996     43.583199999999998     50.743600000000008
C      43.422200000000004     42.237099999999998     50.376799999999996
C      44.538200000000003     42.321700000000000     49.533800000000006
C      45.555499999999995     50.766100000000002     47.827900000000007
C      45.714299999999994     51.821399999999997     46.863599999999998
C      46.578599999999994     51.047600000000010     45.884300000000003
C      46.944000000000003     49.834600000000002     46.445299999999996
C      45.075800000000001     51.195399999999999     49.291199999999996
C      44.118099999999998     50.622300000000003     48.185800000000008
C      43.332800000000006     49.281399999999998     48.460400000000000
C      43.370900000000006     48.898099999999992     46.827500000000008
C      44.636099999999999     52.689900000000002     49.865800000000000
C      45.829599999999999     53.611499999999999     50.321900000000007
C      42.683899999999994     47.505299999999998     47.032800000000002
C      42.951200000000000     51.575799999999994     47.928800000000003
C      49.791200000000003     47.195700000000002     46.738500000000009
H      54.343000000000004     47.191200000000002     47.343700000000005
H      53.429500000000004     45.616199999999999     47.623899999999999
H      49.029100000000000     45.524200000000000     48.438899999999997
H      47.519099999999995     42.647100000000002     47.918700000000008
H      49.605300000000000     48.736199999999990     48.253800000000005
H      43.402699999999996     45.792499999999997     50.329700000000010
H      42.134100000000004     43.796500000000002     51.539600000000000
H      42.998599999999996     41.254399999999997     50.788400000000003
H      44.610500000000002     41.269599999999997     49.108399999999996
H      45.911299999999997     52.937199999999997     47.219600000000007
H      47.128200000000007     51.269100000000002     44.835200000000007
H      45.193899999999999     50.613899999999994     50.148299999999999
H      42.271400000000000     49.573100000000004     48.688000000000009
H      43.593500000000006     48.768599999999999     49.400100000000002
H      43.369399999999999     49.931100000000001     46.404800000000002
H      44.318300000000008     48.632600000000004     46.524400000000007
H      43.574799999999996     52.854500000000009     50.262300000000003
H      44.114800000000002     53.183799999999998     49.124400000000001
H      45.820200000000000     53.685899999999997     51.464800000000004
H      46.022300000000001     54.745600000000003     49.977399999999996
H      46.953199999999995     53.295899999999996     50.575300000000006
H      41.656999999999996     47.620500000000000     47.545600000000000
H      43.686499999999995     46.491000000000000     47.466100000000004
H      42.476100000000002     47.270500000000006     45.982700000000001
H      42.743099999999998     52.140000000000001     48.892200000000010
H      41.969099999999997     51.104399999999991     47.446300000000001
H      43.253500000000003     52.501300000000008     47.303199999999997
H      47.928899999999999     49.159500000000001     44.460400000000000
H      49.594999999999999     46.214199999999998     46.435600000000001
O      51.230599999999995     47.770899999999997     46.719000000000001
O      44.381399999999999     47.557000000000009     51.402900000000010
