18

C      47.786399999999986     48.586549999999995     48.202149999999989
C      48.747960000000006     47.811850000000007     47.487249999999996
C      47.704270000000008     48.245050000000006     49.599049999999998
C      49.559560000000005     46.916550000000001     48.384350000000005
C      46.833250000000007     49.720250000000007     47.745150000000002
C      48.879459999999995     48.068550000000002     46.100050000000003
C      48.587360000000004     47.558549999999997     50.548750000000005
C      49.684960000000004     46.835850000000008     49.757950000000001
C      46.756670000000000     49.685649999999995     46.294249999999998
C      47.772729999999996     48.845849999999999     45.596849999999996
H      47.025720000000007     48.673850000000002     50.392549999999993
H      50.200460000000007     46.281250000000000     47.627149999999993
H      45.728340000000003     50.054249999999996     47.854449999999993
H      49.703659999999999     47.833050000000000     45.492150000000002
H      48.575460000000007     47.343249999999998     51.567950000000003
H      50.271659999999997     45.945750000000004     50.171249999999993
H      45.976870000000005     49.942250000000001     45.618050000000004
H      47.543430000000001     48.875450000000001     44.432049999999997
