9

C      47.221349999999994     47.542214999999992     47.074699999999993
C      48.311750000000004     46.571695000000005     46.603999999999999
C      48.607750000000003     48.229705000000010     47.158100000000005
C      47.365349999999992     48.786705000000005     47.678600000000003
H      46.823350000000005     50.513204999999999     48.694100000000006
H      47.414149999999992     49.097605000000001     49.526600000000002
H      49.270949999999999     48.815004999999999     46.473399999999998
O      46.729050000000001     49.552605000000000     48.899400000000014
O      48.860650000000000     45.486795000000001     46.656300000000002
