18

C      48.415349999999989     47.255789999999990     48.660349999999994
C      48.199750000000009     48.645880000000005     47.996650000000002
C      47.875250000000008     46.724519999999998     49.862450000000003
C      47.343850000000003     49.601190000000003     48.817249999999994
C      48.928750000000008     46.400700000000001     47.607050000000001
C      48.639650000000003     48.981549999999999     46.720250000000000
C      46.939750000000004     47.677750000000003     50.479350000000004
C      46.654150000000001     48.890710000000013     49.857050000000008
C      49.597350000000006     46.708889999999997     46.285750000000000
C      49.363950000000003     48.024360000000001     45.850950000000005
H      47.979749999999996     45.641610000000000     50.161450000000009
H      46.870850000000004     50.689210000000003     48.629650000000005
H      49.100049999999996     45.310789999999997     47.543050000000001
H      48.452849999999998     50.037689999999998     46.378350000000005
H      46.313749999999999     47.248959999999997     51.207050000000002
H      45.774850000000001     49.356999999999999     50.253250000000001
H      50.225149999999999     45.862700000000004     45.671150000000004
H      49.702250000000006     48.253240000000005     44.792949999999998
