18

C      47.598469999999992     48.427699999999987     48.176999999999992
C      48.275770000000001     47.192499999999995     47.503300000000003
C      48.381170000000004     49.483499999999992     47.726300000000002
C      49.240870000000008     47.171300000000002     46.308399999999999
C      46.465669999999996     48.615499999999997     49.040799999999997
C      47.257269999999998     46.119500000000002     47.726000000000006
C      49.411570000000005     49.610699999999994     46.903500000000001
C      49.805270000000000     48.459900000000005     46.197800000000008
C      45.817169999999997     47.336799999999997     49.419500000000006
C      46.089869999999998     46.212800000000001     48.505000000000003
H      47.998870000000004     50.373800000000003     48.065900000000006
H      49.743270000000003     46.226100000000002     46.092700000000001
H      46.211869999999998     49.594700000000003     49.723599999999998
H      47.222770000000004     45.446200000000005     46.853800000000000
H      50.017569999999999     50.553799999999995     46.806500000000007
H      50.836669999999998     48.413200000000003     45.780899999999995
H      45.163330000000002     47.191900000000004     50.219100000000005
H      45.366999999999997     45.534800000000004     48.339100000000009
