33

C      46.627134999999981     49.554899999999989     48.892299999999992
C      52.146784999999994     46.238399999999999     48.277699999999996
C      45.864724999999993     48.282200000000003     49.153900000000000
C      51.279124999999993     45.554800000000000     49.070000000000000
C      47.730174999999988     49.499899999999997     47.976899999999993
C      51.851924999999994     47.547299999999993     47.684599999999996
C      47.040334999999999     47.290199999999999     49.137700000000002
C      49.913954999999987     46.177400000000006     49.246400000000001
C      51.113414999999989     50.132500000000007     45.993299999999998
C      50.839945000000000     49.720699999999994     47.379799999999996
C      49.827134999999998     50.283799999999999     46.517299999999999
C      50.648214999999993     48.287999999999997     48.054899999999996
C      48.215184999999991     48.131399999999999     48.573099999999997
C      49.644774999999996     47.584800000000001     48.862800000000000
C      47.462304999999986     46.021699999999996     49.767400000000002
C      48.839554999999990     45.523200000000003     49.775600000000004
C      48.429214999999985     50.366000000000000     47.100800000000000
C      45.881524999999982     50.597099999999998     49.526899999999991
C      44.559624999999983     50.100600000000000     50.027300000000004
C      44.604294999999993     48.694100000000006     49.647900000000000
C      46.473364999999987     45.007099999999994     50.230600000000003
H      52.978874999999988     45.743200000000002     47.882100000000001
H      51.722974999999991     44.680800000000005     49.466400000000000
H      52.354124999999996     48.031999999999996     46.747700000000002
H      51.627564999999990     49.661799999999999     45.222699999999996
H      51.144484999999989     50.370100000000008     48.167899999999996
H      49.025714999999991     44.447999999999993     50.115499999999997
H      48.133814999999984     51.251800000000003     46.726899999999993
H      46.070424999999986     51.720600000000005     49.500899999999994
H      43.491424999999978     48.021199999999993     49.708399999999997
H      43.021125000000012     51.230800000000002     50.777300000000004
O      45.682854999999989     44.279399999999995     50.320199999999993
O      43.995806999999985     51.418899999999994     50.304299999999998
