18

C      47.496699999999997     48.197549999999993     47.222849999999994
C      48.254000000000005     48.210150000000006     48.333649999999999
C      46.090000000000003     48.473549999999996     47.671950000000002
C      48.138500000000008     48.560150000000000     49.706949999999999
C      47.980000000000004     47.714949999999995     45.878450000000001
C      49.588800000000006     47.857749999999996     48.221350000000001
C      45.683400000000006     48.785350000000001     49.005749999999999
C      46.740800000000007     48.710850000000001     50.111649999999997
C      49.351399999999998     47.143549999999998     45.921650000000000
C      50.285100000000000     47.522649999999999     46.917149999999999
H      45.339400000000005     48.485449999999993     46.924549999999996
H      48.917900000000003     48.430450000000000     50.422850000000004
H      47.315500000000000     47.349849999999996     45.103850000000001
H      50.227199999999996     47.702849999999998     49.188549999999999
H      44.654499999999999     48.927450000000000     49.252149999999993
H      46.563900000000004     49.012750000000004     51.170549999999999
H      49.451499999999996     46.987249999999996     44.829450000000001
H      51.345500000000001     47.015650000000001     46.725549999999998
