18

C      47.486199999999997     48.451549999999990     48.564349999999997
C      47.899400000000000     47.679549999999999     47.366250000000001
C      47.374700000000004     49.938550000000006     48.539549999999998
C      48.012000000000000     48.396349999999998     46.071550000000002
C      47.306899999999999     47.551349999999999     49.841750000000005
C      48.248900000000006     46.290950000000002     47.328350000000000
C      48.052700000000002     50.496549999999999     47.348849999999999
C      48.305700000000002     49.746449999999996     46.139150000000001
C      47.671100000000010     46.120449999999998     49.838549999999998
C      48.072199999999995     45.617550000000001     48.594650000000001
H      47.219000000000008     50.600850000000001     49.391050000000007
H      48.321700000000007     47.716549999999998     45.216250000000002
H      47.392800000000008     47.992150000000002     50.783749999999998
H      48.400400000000005     45.972450000000002     46.386050000000004
H      48.636200000000002     51.347650000000002     47.445650000000001
H      48.780999999999992     50.291550000000001     45.228450000000002
H      47.757399999999990     45.290250000000000     50.473950000000002
H      48.613500000000002     44.652349999999998     48.619950000000003
