20

C      47.624199999999988     47.862199999999994     47.402049999999996
C      48.483400000000003     48.277599999999993     48.377049999999997
C      46.206699999999998     47.344999999999999     47.880949999999999
C      47.863299999999995     48.573799999999991     49.658749999999998
C      48.349699999999999     47.350700000000003     46.157049999999998
C      49.765000000000001     48.423699999999997     48.144750000000002
C      45.570200000000000     48.298099999999991     48.899749999999997
C      46.486199999999997     49.008200000000002     49.848350000000011
C      49.646900000000002     47.728799999999993     45.755650000000003
C      50.364400000000003     48.523299999999992     46.692550000000004
C      45.137299999999996     46.956800000000001     49.248350000000002
H      45.816699999999997     47.404899999999998     46.890550000000005
H      48.576900000000009     48.750000000000000     50.421349999999990
H      47.750600000000006     46.569699999999997     45.477650000000004
H      50.689700000000002     48.541799999999995     48.845749999999995
H      44.578599999999994     48.874899999999997     48.431550000000001
H      45.940799999999996     49.430300000000003     50.841749999999998
H      50.229600000000005     47.102000000000004     45.158250000000002
H      51.421400000000006     48.649599999999992     46.543950000000002
O      45.276600000000002     46.663399999999996     50.449849999999998
