18

C      47.588049999999996     47.484899999999996     47.241300000000003
C      48.327349999999996     48.252200000000002     48.220200000000006
C      48.089649999999992     46.201499999999996     46.938200000000009
C      49.684950000000001     47.745000000000005     48.943300000000008
C      46.265850000000000     48.282200000000003     47.039000000000001
C      48.016849999999991     49.536299999999997     48.525500000000008
C      49.064849999999993     45.576599999999999     47.875000000000000
C      50.013849999999991     46.378399999999999     48.685000000000002
C      46.073650000000001     49.711999999999989     47.043800000000005
C      46.971649999999997     50.421599999999998     48.016300000000001
H      47.734649999999988     45.492300000000000     46.176400000000001
H      50.115649999999988     48.218900000000005     49.823599999999999
H      45.360849999999999     47.890000000000001     46.604200000000006
H      48.691949999999991     49.790299999999988     49.380600000000001
H      49.116549999999989     44.518900000000002     47.608400000000003
H      50.639150000000001     45.809799999999996     49.041700000000006
H      45.399749999999997     50.070999999999998     46.387200000000007
H      46.773349999999994     51.481099999999998     48.363000000000000
