59

C      47.097049999999996     47.897499999999994     49.426899999999989
C      46.669049999999999     48.485700000000001     50.719300000000004
C      45.310550000000006     43.998899999999999     51.519400000000005
C      46.970249999999993     46.614800000000002     48.920100000000005
C      45.866649999999993     47.583500000000001     51.406600000000012
C      45.746350000000007     44.388900000000000     49.019100000000009
C      46.008250000000004     45.799900000000001     49.595800000000011
C      45.718149999999994     46.255800000000001     50.963900000000010
C      47.741450000000000     49.995600000000003     48.208700000000007
C      47.840849999999989     51.387800000000006     48.644500000000008
C      47.025750000000002     50.586300000000001     49.484000000000009
C      46.574050000000000     49.997000000000007     50.766400000000004
C      47.513050000000007     48.637900000000002     47.844400000000007
C      46.318449999999999     48.609099999999991     46.972900000000010
C      46.031049999999993     47.628099999999996     46.015400000000014
C      47.754149999999996     46.145899999999997     47.847200000000015
C      48.436749999999989     47.582400000000000     47.381300000000010
C      44.840950000000007     48.469099999999990     52.361800000000002
C      44.548950000000005     50.026100000000000     51.856700000000004
C      45.913950000000000     50.791099999999993     51.926500000000004
C      45.437550000000002     43.534199999999998     50.168100000000010
C      45.463849999999994     43.739600000000003     47.569200000000009
C      49.107049999999987     46.812399999999997     43.109300000000005
C      50.822149999999993     44.960599999999999     46.051500000000004
C      49.007450000000006     43.094900000000003     46.631800000000013
C      49.715849999999989     43.965899999999998     45.830300000000008
C      48.103949999999998     46.470599999999997     44.575000000000003
C      46.856150000000000     46.890200000000000     45.132000000000005
C      49.169650000000004     45.819699999999997     44.142499999999998
C      50.003649999999993     44.895800000000001     44.667500000000004
C      45.520049999999998     47.338799999999999     44.832900000000009
C      51.745249999999999     45.425600000000003     46.874200000000002
H      47.942549999999997     53.713500000000003     49.293700000000001
H      46.157849999999996     43.780799999999999     46.727000000000004
H      49.093149999999994     52.694899999999997     47.903100000000009
H      44.402050000000003     45.466000000000001     52.691800000000015
H      45.684349999999995     49.343100000000000     47.222700000000003
H      47.259749999999997     45.655499999999996     46.899300000000011
H      48.352549999999994     45.259000000000000     48.116800000000012
H      49.401949999999999     47.713400000000000     47.972800000000007
H      48.619049999999987     47.847200000000001     46.221400000000003
H      45.233549999999994     48.624200000000009     53.528300000000002
H      43.784649999999999     48.097500000000004     52.491500000000002
H      44.013850000000005     50.214000000000006     51.021800000000013
H      43.738450000000000     50.511299999999999     52.701000000000008
H      45.743250000000003     51.909799999999997     51.647400000000005
H      46.412350000000004     50.681400000000004     52.876600000000010
H      44.956649999999996     42.683999999999997     49.857600000000005
H      44.923850000000002     42.815199999999997     47.956700000000012
H      45.110950000000003     44.518200000000000     47.012000000000015
H      49.822549999999993     47.729199999999999     43.347400000000007
H      48.228149999999999     46.782699999999998     42.471699999999998
H      44.675749999999994     46.686399999999999     44.690800000000010
H      52.261550000000000     46.389200000000002     46.756500000000003
H      51.664550000000006     45.098700000000001     47.892000000000010
H      44.620649999999998     43.328400000000002     52.022100000000009
N      45.298950000000005     45.251500000000000     52.071000000000012
N      48.157749999999993     52.742399999999996     48.677000000000007
O      48.716449999999995     42.286499999999997     47.375300000000010
