18

C      48.316599999999994     48.681699999999999     48.187649999999998
C      48.390800000000006     47.192099999999996     48.201250000000002
C      47.336800000000004     49.460099999999997     49.129750000000001
C      47.429099999999998     46.438400000000001     48.906849999999991
C      49.136900000000004     49.707499999999996     47.582750000000004
C      49.433799999999998     46.815399999999997     47.246950000000005
C      46.419800000000002     48.514499999999998     49.933950000000010
C      46.613300000000002     47.048500000000004     50.017150000000001
C      49.912900000000000     49.145800000000008     46.514550000000000
C      49.838300000000011     47.755000000000010     46.295750000000005
H      47.227800000000002     50.510000000000005     49.446050000000000
H      47.395200000000003     45.317300000000003     48.985349999999997
H      49.207700000000010     50.682699999999997     47.766650000000006
H      49.461800000000004     45.820900000000009     46.987450000000003
H      45.562500000000000     49.063400000000001     50.334850000000003
H      46.156599999999997     46.431700000000006     50.492249999999999
H      50.437500000000000     49.677100000000010     45.733450000000005
H      50.254100000000001     47.132599999999996     45.507750000000001
