18

C      48.600249999999988     47.398700000000005     47.268449999999994
C      47.854449999999993     48.698300000000010     47.368050000000004
C      47.971550000000001     46.244400000000006     46.403750000000002
C      46.503449999999994     48.869100000000010     46.642250000000004
C      49.712150000000001     47.301600000000001     48.092350000000003
C      48.039949999999997     49.633100000000006     48.461950000000002
C      46.573949999999996     46.247700000000002     46.134850000000000
C      46.143849999999993     47.589300000000001     46.284650000000006
C      49.968150000000001     48.247000000000007     49.207050000000002
C      49.050249999999998     49.336200000000012     49.402550000000005
H      48.723449999999993     45.440700000000000     46.133650000000003
H      45.870550000000001     49.839500000000008     46.658250000000002
H      50.450150000000001     46.452900000000007     47.901250000000005
H      47.490549999999999     50.559300000000000     48.507949999999994
H      45.711349999999996     45.531900000000000     45.903250000000000
H      45.059750000000001     47.843300000000006     46.148850000000003
H      50.940249999999999     48.175800000000002     49.701650000000001
H      49.484950000000005     50.183900000000001     50.096750000000000
