18

C      47.874384999999990     47.939599999999999     48.190349999999995
C      48.827995000000016     48.625899999999994     47.297049999999999
C      46.441405000000003     48.107099999999996     48.003749999999997
C      48.380695000000003     49.793500000000002     46.691749999999999
C      48.474135000000004     46.756499999999996     48.982849999999985
C      50.173564999999996     48.145000000000003     47.178849999999997
C      45.903085000000004     49.388399999999997     47.448049999999995
C      46.935575000000000     50.087300000000006     46.810149999999993
C      49.400075000000001     45.915200000000006     48.424949999999995
C      50.304845000000014     46.781699999999994     47.606650000000002
H      45.720325000000003     47.448000000000000     48.389649999999989
H      48.866304999999997     50.368999999999993     46.009749999999997
H      47.868485000000007     46.723599999999998     49.990250000000003
H      51.032595000000001     48.787699999999994     46.860749999999996
H      44.841994999999997     49.509200000000000     47.431150000000002
H      46.837145000000007     51.177799999999998     46.489249999999998
H      49.404205000000005     44.822200000000002     48.879350000000002
H      51.158005000000003     46.274700000000003     47.375649999999993
