18

C      47.498449999999998     47.763499999999993     48.460099999999997
C      48.260249999999999     48.680199999999992     47.447800000000001
C      48.384950000000003     47.303699999999999     49.604299999999995
C      49.785150000000002     48.727100000000000     47.482799999999997
C      46.307450000000003     46.988999999999997     48.189499999999995
C      47.533550000000005     49.199599999999997     46.328199999999995
C      49.771749999999997     47.590799999999994     49.787499999999994
C      50.329250000000002     48.238099999999996     48.594899999999996
C      45.583650000000006     47.568599999999996     47.007999999999996
C      46.099550000000008     48.708499999999994     46.225700000000003
H      48.406549999999996     46.258800000000001     50.136899999999997
H      50.407750000000007     49.058699999999995     46.702900000000000
H      45.922849999999997     46.105600000000003     48.792800000000000
H      48.069850000000002     49.894399999999997     45.588800000000006
H      50.429749999999999     46.996900000000004     50.411199999999994
H      51.477750000000000     48.086300000000001     48.576999999999998
H      44.522250000000000     47.135100000000001     46.868800000000007
H      45.469650000000001     49.531900000000000     45.837400000000002
