18

C      47.759049999999988     47.499099999999984     48.632299999999994
C      48.402149999999999     48.461099999999995     47.581199999999995
C      48.544449999999998     47.030499999999996     49.794899999999998
C      49.643849999999993     48.991699999999987     47.881500000000003
C      46.421949999999995     47.119499999999995     48.372399999999999
C      47.561749999999996     48.893200000000000     46.464799999999997
C      49.809649999999998     47.389699999999998     49.964900000000000
C      50.372049999999994     48.485699999999987     49.038200000000003
C      45.603649999999995     47.521399999999993     47.247500000000002
C      46.245949999999993     48.319399999999995     46.232900000000001
H      48.064450000000001     46.363799999999991     50.495000000000005
H      50.121149999999993     49.696300000000001     47.339500000000001
H      46.001349999999995     46.303699999999999     48.936899999999994
H      47.757649999999998     49.550199999999997     45.586500000000001
H      50.392149999999994     47.080899999999993     50.729200000000006
H      51.357450000000007     48.058999999999990     49.321200000000005
H      44.642549999999993     46.975099999999991     47.112200000000001
H      45.827149999999996     48.375399999999992     45.270799999999994
