50

C      50.465199999999996     43.508699999999983     49.003799999999991
C      47.849500000000006     47.563199999999995     48.234600000000000
C      46.587500000000006     48.131699999999995     48.627200000000002
C      48.597200000000001     52.326300000000003     46.923500000000004
C      48.519400000000005     48.426099999999991     47.302800000000005
C      46.263300000000001     49.649299999999997     48.805300000000003
C      49.001999999999995     50.987399999999994     46.742400000000004
C      47.319500000000005     52.028499999999994     47.616599999999998
C      48.194299999999998     49.943699999999993     47.263800000000003
C      46.986900000000006     50.592900000000000     47.947499999999998
C      47.890699999999995     46.015999999999991     48.347700000000003
C      46.641000000000005     45.253000000000000     48.555799999999998
C      45.576099999999997     45.950000000000003     49.062700000000007
C      45.426100000000005     47.307599999999994     49.103300000000004
C      49.254700000000000     45.432800000000000     48.032299999999999
C      49.256100000000004     44.227099999999993     48.881999999999998
C      48.189400000000006     43.514499999999998     48.205199999999998
C      46.729500000000002     43.832599999999999     48.439500000000002
C      49.486599999999996     47.819599999999994     46.316299999999998
C      49.707999999999998     46.150399999999991     46.807099999999998
C      48.323700000000002     42.793199999999999     46.792800000000000
C      46.312700000000007     52.441199999999995     46.419899999999998
C      44.762299999999996     51.947000000000003     46.599200000000003
C      50.727999999999994     46.218699999999998     47.958300000000001
C      49.253399999999999     44.210399999999993     50.325900000000004
C      46.981399999999994     53.197299999999998     48.621099999999998
H      51.287599999999998     44.140799999999999     48.701000000000001
H      50.301199999999994     42.545999999999992     48.632200000000005
H      49.221000000000004     53.150999999999996     46.795200000000001
H      49.944500000000005     50.672299999999993     45.901900000000005
H      44.773099999999999     45.375299999999996     49.689700000000002
H      44.469999999999999     47.836600000000004     49.356700000000004
H      45.688100000000006     43.206400000000002     48.472000000000001
H      48.965999999999994     47.848699999999994     45.339500000000001
H      50.250600000000006     48.425299999999993     45.769400000000005
H      49.730999999999995     45.517600000000002     45.938099999999999
H      46.354900000000001     53.491299999999995     46.210700000000003
H      46.497000000000000     51.917299999999997     45.463700000000003
H      44.348900000000000     52.297100000000000     47.500500000000002
H      44.615600000000001     50.910899999999998     46.795099999999998
H      44.203699999999998     52.008600000000001     45.698200000000000
H      51.796300000000002     46.155400000000000     47.735100000000003
H      50.691299999999998     47.092500000000001     48.713000000000001
H      49.154499999999999     45.189799999999991     50.660499999999999
H      48.647099999999995     43.320300000000003     50.595399999999998
H      47.968199999999996     53.839100000000002     48.255099999999999
H      47.329300000000003     53.005499999999998     49.527600000000007
H      46.143000000000001     53.815199999999990     48.692700000000002
O      48.427000000000007     42.160899999999998     45.951500000000003
O      45.377499999999998     50.215000000000003     49.394199999999998
