18

C      48.837549999999993     48.641049999999993     48.105849999999990
C      47.735349999999997     47.464249999999993     47.954150000000006
C      49.173050000000003     49.139949999999999     46.761850000000003
C      47.826049999999995     46.520049999999998     46.957749999999997
C      49.000550000000004     49.383949999999999     49.338450000000002
C      46.872450000000001     47.305549999999997     49.172649999999997
C      49.322949999999992     47.968350000000001     45.834049999999998
C      48.862349999999992     46.629350000000002     45.803550000000008
C      47.930149999999998     49.163250000000005     50.148649999999996
C      46.937349999999995     48.092349999999996     50.363950000000010
H      49.522350000000003     50.248249999999999     46.483750000000008
H      47.220950000000002     45.629649999999998     47.156950000000002
H      49.431950000000001     50.370350000000002     49.465150000000001
H      46.200450000000004     46.338250000000002     49.184150000000010
H      49.799549999999996     47.906850000000006     44.736049999999999
H      48.965649999999997     45.911450000000002     45.204150000000006
H      48.215850000000003     50.017049999999998     50.963050000000003
H      46.334550000000007     48.017949999999999     51.263950000000001
