18

C      48.496879999999990     48.402349999999991     47.683549999999997
C      47.426100000000005     47.385050000000000     48.084349999999993
C      49.353620000000006     47.896549999999998     46.604050000000001
C      47.203940000000003     46.089849999999998     47.456450000000004
C      48.833140000000000     49.632549999999995     48.168550000000003
C      46.680350000000004     48.017550000000000     49.162750000000010
C      48.865250000000003     46.642650000000003     46.019950000000001
C      47.889749999999992     45.612150000000000     46.319550000000007
C      47.901780000000002     50.243049999999997     48.978549999999998
C      46.850909999999999     49.350549999999998     49.636650000000010
H      50.132540000000006     48.620949999999993     46.287850000000006
H      46.334410000000005     45.450949999999999     47.852950000000014
H      49.800209999999993     50.136849999999995     47.897250000000000
H      45.867459999999994     47.502849999999995     49.868149999999993
H      49.497090000000000     46.225549999999998     45.264950000000006
H      47.553150000000002     44.651550000000000     46.109650000000002
H      47.951710000000006     51.348450000000000     49.119950000000003
H      46.435400000000001     49.668450000000007     50.735049999999994
