18

C      48.708349999999996     48.272999999999989     48.388249999999992
C      47.242249999999999     47.929599999999994     48.798349999999999
C      49.712050000000005     47.233099999999993     48.248350000000002
C      47.218149999999994     46.501800000000003     49.188350000000000
C      48.690950000000001     49.405400000000000     47.455449999999999
C      46.199749999999995     48.754099999999994     48.414050000000003
C      49.627949999999998     45.988000000000000     49.006549999999997
C      48.292649999999995     45.650599999999997     49.316949999999991
C      47.582949999999997     50.379099999999994     47.232950000000002
C      46.258650000000003     50.026100000000000     47.648249999999997
H      50.819249999999997     47.519399999999990     47.910849999999996
H      46.319050000000004     45.913499999999999     49.416150000000002
H      49.282150000000001     49.281300000000002     46.430149999999998
H      45.180750000000003     48.456899999999990     48.742849999999990
H      50.472549999999998     45.185800000000000     49.234949999999998
H      48.079850000000008     44.640799999999999     49.569850000000002
H      47.673249999999996     51.359200000000001     46.764550000000000
H      45.415149999999997     50.594700000000003     47.510950000000001
