18

C      48.538299999999992     47.753349999999998     48.342654999999979
C      47.163700000000006     48.290449999999993     48.910324999999993
C      49.266699999999986     48.460350000000005     47.342012999999987
C      46.637400000000000     49.594850000000008     48.333314999999992
C      49.307699999999997     46.546650000000000     48.754644999999989
C      46.494000000000000     47.235550000000003     49.593654999999991
C      48.620999999999995     49.694649999999996     47.151657999999991
C      47.396500000000003     50.390450000000001     47.470173999999986
C      48.444299999999998     45.508250000000004     49.228284999999993
C      47.078800000000001     45.873050000000006     49.513414999999988
H      50.067499999999995     47.876050000000006     46.879166499999990
H      45.718999999999994     50.217250000000007     48.735674999999993
H      50.526799999999994     46.491550000000004     48.859414999999991
H      45.473200000000006     47.648049999999998     49.531994999999988
H      49.114900000000006     50.302749999999989     46.406345000000009
H      47.172299999999993     51.439549999999997     47.153711999999992
H      48.853099999999998     44.560450000000003     49.529074999999992
H      46.433300000000003     44.966350000000006     49.492144999999987
