18

C      48.459949999999992     48.717747499999987     47.454949999999997
C      47.638449999999999     48.251647499999997     48.841750000000005
C      47.853549999999998     49.840547500000007     46.705349999999996
C      46.584550000000000     49.063147500000007     49.262049999999988
C      49.657850000000003     48.263047500000006     47.046149999999997
C      48.193150000000003     47.078647499999995     49.351050000000001
C      46.640850000000000     50.240106500000010     47.058049999999994
C      46.042850000000001     50.088707000000007     48.416049999999998
C      50.029350000000001     47.147747500000001     47.831949999999992
C      49.242449999999998     46.359447499999995     48.802750000000003
H      48.282950000000000     50.203995499999998     45.818150000000003
H      46.001550000000002     48.873847500000004     50.120850000000004
H      50.331249999999990     48.499947499999998     46.198149999999998
H      47.570050000000002     46.717747499999994     50.181849999999997
H      46.331750000000000     50.763352500000003     46.178550000000001
H      45.119950000000003     50.666236500000011     48.672250000000005
H      50.880049999999997     46.453147500000007     47.826449999999994
H      49.369349999999990     45.236647499999997     49.213249999999988
