18

C      48.366949999999989     47.467800000000004     47.463799999999992
C      47.681049999999992     48.406700000000001     48.443700000000000
C      49.120950000000001     46.099900000000005     47.518400000000007
C      47.239550000000001     47.669200000000004     49.618000000000002
C      48.955049999999993     48.112200000000001     46.295300000000005
C      47.415749999999996     49.777300000000011     48.312900000000006
C      48.991350000000004     45.785600000000002     48.898800000000001
C      47.966450000000002     46.456700000000012     49.761200000000009
C      48.669249999999998     49.470500000000001     46.201500000000003
C      47.794149999999995     50.340400000000002     47.021400000000007
H      49.569150000000000     45.608500000000006     46.721200000000003
H      46.421849999999999     48.081500000000005     50.370600000000003
H      49.578150000000001     48.119200000000006     45.386000000000003
H      46.819650000000003     49.976700000000008     49.290600000000005
H      48.940850000000005     44.769700000000000     49.383600000000008
H      47.403849999999998     46.172200000000004     50.613999999999997
H      49.149549999999998     50.137700000000009     45.409799999999997
H      47.117249999999991     51.230300000000000     46.828400000000009
