18

C      47.808899999999987     48.200299999999991     47.184799999999996
C      48.200800000000001     48.114699999999999     48.714499999999994
C      46.438800000000001     48.441999999999993     46.953500000000005
C      47.222299999999990     48.144300000000001     49.752199999999995
C      48.884699999999995     47.986199999999997     46.195200000000007
C      49.562999999999988     47.898600000000002     49.083500000000001
C      45.431500000000000     48.361399999999996     48.027700000000003
C      45.875799999999998     48.282200000000003     49.442400000000013
C      50.179899999999989     47.794899999999998     46.664600000000000
C      50.664699999999996     47.839399999999998     48.040800000000004
H      46.025899999999993     48.476900000000001     46.025300000000001
H      47.562500000000000     48.394700000000000     50.787299999999995
H      48.638899999999992     48.078099999999999     45.212700000000005
H      49.789099999999991     47.644099999999995     50.076000000000001
H      44.334299999999999     48.425399999999996     47.860900000000001
H      45.043300000000002     48.462999999999994     50.177200000000006
H      50.989300000000000     47.523099999999999     45.971900000000005
H      51.665700000000001     47.775099999999995     48.572600000000001
