34

C      47.114100000000001     43.971299999999985     48.871799999999993
C      49.198099999999997     44.087099999999992     47.240299999999998
C      47.520399999999995     45.326700000000002     49.103600000000000
C      46.967100000000002     46.634299999999996     48.137400000000000
C      48.534099999999995     44.274000000000001     48.547300000000000
C      50.546599999999998     43.715000000000003     47.191400000000002
C      46.378200000000007     44.446100000000001     50.088600000000000
C      45.968699999999998     48.999600000000001     48.212100000000000
C      46.631699999999995     49.838300000000004     47.142499999999998
C      45.770700000000005     47.553200000000004     48.109499999999997
C      47.066800000000001     48.835800000000006     46.190399999999997
C      44.999600000000001     49.625600000000006     49.128400000000006
C      46.503799999999998     51.297600000000003     47.343499999999999
C      46.208900000000000     47.659800000000004     45.658600000000000
C      45.828699999999998     46.631199999999993     46.958399999999997
C      45.367199999999997     51.009799999999998     49.556799999999996
C      45.679800000000000     51.817099999999996     48.353299999999997
H      47.299899999999994     47.436300000000003     45.101199999999999
H      44.942499999999995     43.377200000000002     47.842399999999998
H      48.653499999999994     43.838499999999996     46.300899999999999
H      47.942700000000002     47.170599999999993     47.764299999999999
H      45.407300000000006     44.979200000000006     49.737400000000001
H      46.605999999999995     44.114099999999993     51.068700000000000
H      44.941299999999998     47.223100000000002     48.836599999999997
H      47.593599999999995     49.408900000000003     45.522500000000001
H      44.595699999999994     49.229500000000002     50.235099999999996
H      46.915599999999998     52.013800000000003     46.520299999999999
H      45.295000000000002     47.710999999999999     44.931300000000000
H      45.292400000000001     45.729699999999994     46.845099999999995
H      44.726500000000001     51.340699999999998     50.268400000000000
H      45.483500000000006     52.933499999999995     48.383899999999997
H      46.389099999999999     44.037700000000001     46.801299999999998
N      45.961299999999994     43.831900000000005     47.793299999999995
O      51.404300000000006     43.066500000000005     46.905799999999999
