25

C      45.802654999999987     48.742211499999989     46.989099999999993
C      44.874435000000005     47.735191499999999     46.553500000000007
C      49.722705000000005     48.797831500000001     50.337300000000006
C      47.704405000000008     47.445171500000001     50.486399999999996
C      44.400925000000001     46.491381499999996     47.091400000000000
C      46.499504999999999     49.269901499999996     48.140800000000006
C      51.204404999999994     48.994931500000000     49.947700000000005
C      51.443404999999998     48.957871499999996     47.053699999999999
C      51.187004999999999     49.220821500000000     48.464899999999993
C      50.174504999999996     49.290801500000001     47.369000000000007
C      48.798304999999999     49.154171499999990     47.056599999999996
C      47.861005000000006     49.034351500000000     48.204299999999996
C      48.473705000000010     48.175421499999999     49.383800000000001
C      45.341814999999997     48.566051500000000     45.573799999999999
C      48.426604999999995     49.741631499999997     49.466400000000000
H      49.603404999999995     48.854671499999995     51.275799999999997
H      45.979505000000003     48.823311499999988     48.960299999999997
H      51.905005000000003     49.083921499999995     50.812400000000004
H      51.886005000000011     48.794921500000001     46.134700000000002
H      48.779004999999998     48.993491500000005     45.849100000000000
H      45.924845000000005     48.900491500000001     44.724200000000003
H      49.404205000000005     50.193091500000008     49.174699999999994
H      47.681205000000006     50.318221500000000     50.005800000000001
O      46.836404999999999     47.050621499999998     51.078700000000005
O      44.094994999999997     45.681778500000000     47.786800000000007
