18

C      48.139099999999999     47.081799999999987     48.354789999999980
C      47.256799999999998     48.112800000000000     47.574689999999997
C      49.410699999999991     46.604000000000006     47.852589999999985
C      47.652799999999999     48.168399999999998     46.355389999999993
C      48.041399999999996     47.251799999999996     49.818377999999989
C      46.266899999999993     48.981600000000007     48.087489999999995
C      49.598700000000008     46.748799999999996     46.441289999999988
C      48.647799999999989     47.421200000000006     45.541089999999990
C      47.104200000000006     48.105399999999996     50.328879999999998
C      46.144199999999998     48.895299999999999     49.469066000000005
H      50.264599999999987     46.372099999999996     48.523589999999992
H      46.935900000000004     48.636000000000003     45.839289999999984
H      48.826599999999999     46.924200000000006     50.499389999999998
H      45.637600000000006     49.625599999999999     47.598189999999995
H      50.362399999999994     46.312099999999994     45.977189999999986
H      48.662700000000001     47.327700000000000     44.594789999999996
H      47.218000000000004     48.498600000000003     51.405210000000004
H      45.834599999999995     49.687900000000006     50.159209999999995
