37

C      45.640049999999995     47.339149999999997     47.415649999999999
C      46.019350000000003     46.117350000000002     46.822550000000007
C      50.901249999999990     45.923150000000007     50.672950000000000
C      49.656049999999993     46.278450000000007     50.033149999999992
C      46.444549999999992     48.533950000000004     49.889650000000003
C      46.382549999999995     46.231350000000006     48.156350000000003
C      49.110649999999993     47.607950000000002     50.388249999999999
C      48.928749999999994     45.823449999999994     48.906250000000000
C      47.787649999999999     47.732050000000001     49.829449999999994
C      47.625850000000000     46.483249999999998     49.024849999999986
C      45.475149999999999     48.438550000000006     48.494749999999996
C      45.019049999999993     46.829449999999994     46.083449999999999
C      45.447149999999993     45.631150000000005     45.516750000000002
C      45.037549999999996     47.870050000000006     49.880549999999999
C      46.643950000000004     50.192849999999993     49.783550000000005
C      45.697450000000003     50.974549999999994     48.890749999999997
C      45.017150000000001     49.943650000000005     47.950950000000006
C      44.527349999999998     51.362949999999998     49.831549999999993
C      48.029550000000000     50.827449999999999     49.491950000000003
C      51.355049999999991     44.662649999999999     50.635649999999998
H      51.522250000000000     46.313749999999999     51.367850000000004
H      49.775549999999996     48.419550000000001     50.611649999999997
H      49.040250000000000     44.853650000000002     48.453749999999999
H      45.109449999999995     45.165449999999993     44.632149999999996
H      46.274549999999991     50.408950000000004     50.849249999999998
H      46.250549999999990     51.823750000000004     48.211050000000000
H      45.220749999999995     50.112049999999996     46.861249999999998
H      43.955649999999999     50.025450000000006     48.008150000000001
H      44.857749999999996     51.972949999999997     50.600949999999997
H      43.616849999999999     51.933750000000003     49.510949999999994
H      44.015449999999994     50.359049999999996     50.371750000000006
H      48.101550000000003     51.856049999999996     49.571349999999995
H      48.280149999999992     50.448149999999998     48.453349999999986
H      48.758250000000004     50.501750000000001     50.351849999999999
H      52.383150000000001     44.648750000000007     51.153350000000003
H      50.851950000000002     44.027050000000003     49.870850000000004
O      43.922449999999998     47.918049999999994     50.242050000000006
