48

C      46.469299999999990     50.451779999999999     47.405249999999995
C      46.277000000000001     49.826549999999997     48.838850000000001
C      45.820900000000002     45.849289999999996     45.789450000000002
C      45.434399999999997     45.244200000000006     47.061950000000003
C      46.058199999999999     49.524650000000008     46.282550000000001
C      45.973599999999998     48.405230000000003     49.102049999999998
C      45.667499999999997     47.225780000000000     45.421750000000003
C      45.323099999999997     46.060990000000004     48.236449999999998
C      45.673299999999998     48.118000000000009     46.535250000000005
C      45.599899999999998     47.548290000000009     47.898750000000000
C      47.205300000000001     51.786649999999995     47.384750000000004
C      47.297100000000000     52.884150000000005     48.280850000000008
C      46.966200000000008     52.109150000000000     49.598250000000000
C      46.842199999999998     50.646060000000006     49.815450000000006
C      46.247900000000001     45.024850000000001     44.594950000000004
C      46.724399999999996     43.725110000000001     44.708250000000000
C      46.285499999999999     43.237459999999999     46.076050000000002
C      45.551899999999996     43.804040000000001     47.137550000000005
C      47.548899999999996     52.279949999999999     45.954350000000005
C      48.914000000000001     52.859549999999999     45.645949999999999
C      47.819800000000001     53.702449999999999     46.127250000000004
C      47.560600000000001     54.150050000000007     47.679549999999999
C      45.907499999999999     50.329540000000009     45.110750000000003
C      47.060200000000002     51.505859999999998     44.777350000000006
C      45.210400000000000     51.626539999999991     45.255450000000003
C      46.971499999999999     41.716849999999994     45.766350000000003
C      50.193300000000001     52.956350000000000     44.880450000000003
C      47.540500000000002     53.559950000000001     51.485250000000001
H      46.159100000000002     47.755830000000003     50.044250000000012
H      46.019399999999997     47.549019999999999     44.468650000000004
H      44.963900000000002     45.660490000000010     49.328750000000007
H      47.229500000000009     50.118740000000003     50.897249999999993
H      46.385899999999999     45.847769999999997     43.728850000000001
H      47.278200000000005     43.299030000000002     43.908149999999999
H      45.746899999999997     43.154640000000001     47.919350000000001
H      47.505299999999998     54.519750000000002     45.396149999999999
H      47.904299999999999     55.064850000000007     48.045049999999996
H      45.752699999999997     49.612630000000010     44.144750000000002
H      47.428800000000003     51.648679999999999     43.730950000000000
H      45.262499999999996     52.238649999999993     46.146350000000005
H      44.846499999999999     51.901750000000007     44.340949999999999
H      48.012499999999996     41.717650000000020     45.513750000000002
H      46.793599999999998     41.127349999999993     46.722450000000002
H      46.548499999999997     40.935149999999993     45.086750000000002
H      48.518299999999996     53.689949999999996     50.949750000000002
O      46.723300000000002     52.601150000000004     50.723949999999995
O      51.153500000000001     52.819149999999993     44.250750000000004
O      47.230499999999999     54.278549999999996     52.271149999999999
