18

C      48.950049999999990     47.966399999999993     48.244564999999994
C      47.493650000000002     47.932500000000005     47.729565000000001
C      49.742850000000004     48.426700000000004     47.161605000000002
C      46.854450000000000     48.028700000000001     46.336275000000001
C      49.282750000000007     48.063900000000011     49.633325000000006
C      46.411150000000006     47.599600000000002     48.640385000000002
C      49.238450000000000     48.621800000000000     45.801414999999999
C      47.895949999999999     48.296500000000002     45.416735000000003
C      48.070149999999998     47.695200000000000     50.449775000000002
C      46.819649999999996     47.395500000000006     49.984235000000005
H      50.724350000000001     48.814900000000002     47.425345000000000
H      45.893150000000006     47.783300000000004     46.103484999999999
H      50.406250000000014     48.022200000000005     49.845665000000004
H      45.275649999999999     47.540600000000005     48.304265000000001
H      49.756650000000008     48.887200000000000     44.832515000000001
H      47.633049999999997     48.640400000000007     44.502305000000000
H      48.161850000000001     47.585799999999999     51.497695000000000
H      46.082650000000001     47.112800000000000     50.847195000000006
