38

C      48.148249999999990     49.702900000000000     49.376149999999988
C      50.539449999999995     47.745699999999999     47.246150000000000
C      46.111149999999995     46.589600000000004     50.495350000000002
C      49.620150000000002     48.809700000000007     47.670549999999999
C      45.921749999999996     47.604900000000001     49.335549999999998
C      49.973949999999995     45.742199999999997     45.984749999999998
C      47.316049999999997     45.897700000000000     49.921750000000003
C      48.242550000000001     49.201800000000006     47.848349999999996
C      44.725449999999995     48.694699999999997     49.436849999999993
C      48.544149999999995     45.525499999999994     47.581150000000001
C      48.734749999999998     46.189099999999996     46.378650000000000
C      47.677549999999997     46.145200000000003     48.417749999999998
C      47.261149999999994     48.259900000000002     47.041249999999998
C      46.877849999999995     47.472600000000000     48.283949999999997
C      47.148750000000000     49.745499999999993     46.868049999999997
C      50.940750000000001     46.435100000000006     46.658650000000002
C      47.596049999999998     45.721299999999999     45.346049999999998
C      47.795449999999995     47.412800000000004     45.907249999999998
C      50.837949999999999     49.241600000000005     47.130949999999999
H      47.995349999999995     49.917800000000000     44.638350000000003
H      48.633649999999996     51.270099999999999     45.802949999999996
H      45.321349999999995     49.345600000000005     50.018349999999998
H      44.017749999999999     48.438500000000005     50.295349999999999
H      46.989849999999997     51.359399999999994     45.148350000000001
H      49.136449999999996     49.937700000000007     49.769050000000007
H      47.353349999999999     49.388099999999994     50.078949999999992
H      47.658149999999999     50.609699999999989     49.277749999999997
H      45.506449999999994     46.358999999999995     51.361649999999997
H      44.272749999999995     48.845100000000002     48.422350000000002
H      49.919750000000001     44.900599999999997     45.241549999999997
H      47.989950000000000     45.234999999999999     50.659549999999996
H      49.011549999999993     44.640600000000006     47.872250000000001
H      46.421749999999996     50.205600000000004     47.574249999999999
H      51.982250000000001     46.341700000000003     46.718350000000001
H      47.610549999999996     47.918400000000005     44.958750000000002
H      50.977150000000002     50.196899999999999     47.175550000000001
N      47.743249999999996     50.672300000000007     45.481650000000002
O      46.840550000000000     44.871099999999998     45.233550000000001
