49

C      49.330799999999996     48.365449999999989     46.750999999999998
C      48.143100000000004     49.039050000000003     46.293599999999998
C      45.741200000000006     45.284549999999996     48.740400000000008
C      44.680200000000006     45.988849999999999     48.023600000000002
C      49.020400000000002     47.167749999999998     47.679299999999998
C      46.767200000000003     48.763149999999996     46.387700000000009
C      47.229000000000006     45.555650000000000     48.480200000000011
C      45.160100000000007     47.184749999999994     47.194200000000009
C      47.635600000000004     46.760149999999996     47.624499999999998
C      46.457000000000001     47.509649999999993     47.161900000000003
C      50.659100000000002     48.827349999999996     46.595100000000002
C      50.658700000000003     50.114149999999995     45.694700000000012
C      49.489200000000004     50.925950000000000     45.172300000000007
C      48.257600000000004     50.369749999999996     45.504600000000011
C      45.194300000000005     44.744050000000001     49.902799999999999
C      43.820600000000006     44.660049999999998     50.358100000000007
C      42.943400000000004     45.089449999999999     49.331000000000003
C      43.224100000000000     45.841149999999999     48.159199999999998
C      51.724799999999995     48.140749999999997     47.272300000000001
C      53.076200000000007     48.788049999999998     47.295100000000005
C      53.246500000000005     50.026550000000000     46.612800000000007
C      52.120000000000012     50.698849999999993     46.026499999999999
C      50.147100000000002     46.943649999999991     48.604600000000005
C      51.500000000000007     46.762749999999997     47.985100000000003
C      50.060499999999998     48.148049999999998     49.473800000000011
C      52.626000000000012     45.771649999999994     48.827600000000004
C      51.352000000000011     45.705050000000000     46.712400000000002
H      45.943100000000001     49.322049999999990     45.997300000000010
H      44.582400000000007     47.901349999999994     46.721299999999999
H      49.674400000000006     51.769350000000003     44.696500000000000
H      47.438200000000002     51.096549999999993     44.932100000000005
H      45.622400000000006     44.230649999999997     50.908400000000000
H      43.490700000000004     44.350449999999995     51.303500000000000
H      41.866000000000007     44.811849999999993     49.484500000000011
H      42.350800000000000     46.122050000000002     47.428100000000001
H      53.704600000000006     48.212750000000000     47.899300000000011
H      54.133999999999993     50.554249999999996     46.444900000000004
H      52.491300000000003     51.622950000000003     45.426700000000011
H      49.881800000000005     45.969949999999997     49.123300000000000
H      49.125900000000001     48.735550000000003     49.312500000000000
H      51.097900000000003     48.325549999999993     50.049599999999998
H      49.849700000000006     47.653149999999997     50.445300000000003
H      52.267700000000012     44.860450000000000     49.031100000000009
H      53.282200000000010     46.424849999999992     49.409000000000006
H      53.368500000000004     45.768249999999995     47.826400000000007
H      50.628099999999996     45.999250000000004     45.896600000000007
H      51.383100000000006     44.436650000000000     46.923700000000011
H      52.228800000000007     45.736049999999992     45.999600000000001
O      47.831800000000001     44.684150000000002     49.160400000000010
