18

C      47.937294999999985     47.839899999999993     47.234499999999997
C      47.812594999999988     48.138199999999998     48.642500000000005
C      48.873441000000000     48.370100000000008     46.283700000000003
C      48.567005999999999     49.370800000000003     48.964300000000001
C      47.315594999999988     46.411400000000000     47.216600000000000
C      47.070394999999991     47.552700000000002     49.792499999999997
C      49.623474999999999     49.558900000000001     46.759000000000000
C      49.338295000000002     50.161200000000001     48.127299999999998
C      46.435994999999991     45.861600000000003     48.199400000000004
C      46.356794999999991     46.369900000000001     49.543300000000009
H      48.890632000000011     47.772500000000001     45.333800000000004
H      48.929434000000001     49.750200000000007     50.060600000000001
H      47.613094999999987     46.147300000000001     46.157600000000002
H      47.075694999999996     48.153599999999997     50.666199999999996
H      50.342205000000007     50.285399999999996     46.191700000000004
H      49.788305000000001     51.006399999999999     48.621800000000000
H      45.657794999999993     44.993600000000001     47.967899999999993
H      45.750194999999991     45.791699999999999     50.326100000000004
