5

C      47.974699999999991     47.857749999999996     47.759749999999997
H      47.131000000000000     47.118749999999999     47.306849999999997
H      48.869000000000000     47.811150000000005     47.047550000000001
H      48.282199999999996     47.788350000000001     48.952449999999999
H      47.621799999999993     48.881250000000001     47.787649999999999
