18

C      48.923049999999989     47.711129999999997     48.500199999999992
C      47.730949999999993     47.285319999999999     47.757699999999993
C      49.924149999999997     48.477580000000010     47.833999999999996
C      47.631349999999998     47.382199999999997     46.273099999999999
C      48.780450000000002     47.475780000000000     49.857099999999996
C      46.313549999999992     47.169930000000001     48.312300000000000
C      49.820750000000004     48.398119999999999     46.411200000000001
C      48.606150000000000     48.142829999999996     45.651800000000001
C      47.533349999999999     47.186010000000003     50.441899999999997
C      46.228250000000003     47.163350000000001     49.761100000000006
H      50.707449999999994     48.905290000000001     48.404699999999998
H      46.748249999999999     46.992910000000002     45.741599999999998
H      49.794349999999994     47.514600000000002     50.289499999999997
H      45.356250000000003     47.057940000000002     47.863499999999995
H      50.574950000000001     49.007089999999998     45.810799999999993
H      48.572950000000006     48.365950000000005     44.446099999999994
H      47.549149999999997     47.073549999999997     51.553900000000006
H      45.292550000000006     47.296640000000004     50.303199999999997
