41

C      48.300949999999993     46.549849999999992     49.242089999999990
C      49.735349999999997     46.523450000000004     48.803590000000000
C      48.262250000000002     51.754849999999998     46.577390000000001
C      46.967449999999999     51.157149999999994     47.275089999999999
C      47.545749999999998     47.739750000000001     49.016390000000001
C      50.232150000000004     47.574549999999995     47.859389999999998
C      49.847549999999998     49.799450000000000     46.544490000000003
C      47.104250000000000     49.876049999999999     48.084890000000001
C      48.022149999999996     48.823850000000000     48.020389999999999
C      49.395949999999999     48.760249999999992     47.540089999999999
C      47.654949999999999     45.402049999999996     50.122189999999996
C      48.570549999999997     44.320650000000001     50.395989999999998
C      50.049650000000000     44.433749999999996     50.193790000000000
C      50.654849999999996     45.548549999999999     49.447490000000009
C      49.486350000000002     51.011350000000000     46.165880000000001
C      47.718450000000004     53.017649999999996     46.195250000000001
C      46.258749999999999     53.234050000000003     46.617489999999997
C      45.914450000000002     52.004150000000003     47.180289999999999
C      46.302650000000000     45.409849999999999     50.244590000000002
C      45.627549999999999     44.170849999999994     50.683289999999992
C      46.535250000000005     43.132749999999994     50.963990000000003
C      47.966750000000005     43.116650000000000     50.887790000000003
C      45.393749999999997     46.580849999999991     50.004989999999999
C      46.207349999999998     47.565149999999996     49.426490000000001
C      51.068049999999999     49.504650000000005     45.457010000000004
H      51.134950000000003     47.694049999999997     47.282589999999999
H      46.314950000000003     49.637250000000002     48.681089999999998
H      50.715850000000003     43.442349999999998     50.420790000000004
H      51.666449999999998     45.682949999999998     49.041289999999996
H      49.911850000000001     51.594349999999999     45.289259999999999
H      48.685650000000003     53.586750000000002     46.000080000000004
H      45.697749999999999     53.998150000000003     46.663390000000000
H      44.922049999999999     51.950949999999999     47.675390000000000
H      44.581650000000003     44.057749999999999     50.743689999999994
H      46.228050000000003     42.001849999999997     51.082889999999999
H      48.542850000000001     42.193950000000001     51.198790000000002
H      44.236850000000004     46.708850000000005     49.768490000000007
H      45.495449999999998     48.260050000000000     49.110990000000001
H      51.442250000000001     50.449449999999999     45.060269999999996
H      51.763149999999996     49.100850000000001     46.260799999999996
H      50.645849999999996     48.756049999999995     44.801209999999998
