18

C      48.467649999999992     47.387149999999991     48.252609999999990
C      47.669450000000012     48.666850000000004     47.943979999999996
C      49.726550000000003     47.082649999999994     47.716349999999998
C      48.327849999999998     49.281349999999996     46.778659999999995
C      48.030150000000006     46.688650000000003     49.434909999999995
C      46.377049999999997     48.997750000000003     48.659810000000000
C      50.295749999999998     47.791050000000006     46.534320000000001
C      49.584050000000005     48.969050000000003     46.091490000000000
C      46.695050000000009     46.910850000000003     49.931010000000008
C      45.837850000000003     48.012650000000001     49.348909999999997
H      50.371050000000011     46.393949999999997     48.323609999999995
H      47.597450000000009     50.167650000000002     46.778919999999999
H      48.711950000000002     45.832349999999998     49.894109999999991
H      45.576850000000007     49.751650000000005     48.354309999999991
H      51.176349999999999     47.313949999999998     46.080599999999997
H      49.639350000000007     49.676250000000003     45.463889999999999
H      46.273850000000010     46.056249999999999     50.536110000000001
H      44.823650000000001     47.900249999999993     49.825710000000008
