18

C      48.350499999999997     47.229249999999986     48.254349999999988
C      47.781300000000002     48.484650000000002     48.049650000000007
C      48.409999999999997     46.345349999999996     49.420150000000000
C      47.377600000000001     49.260350000000003     49.208949999999994
C      49.071600000000004     46.574449999999999     47.231749999999998
C      48.131900000000002     49.365949999999998     46.917949999999998
C      47.405900000000003     47.046750000000003     50.200349999999993
C      46.971099999999993     48.437950000000001     50.295250000000003
C      49.330799999999996     47.429349999999999     46.071850000000005
C      48.774900000000002     48.766350000000003     45.809249999999999
H      49.010099999999994     45.404049999999998     49.575449999999996
H      46.791299999999993     50.203749999999999     49.368150000000007
H      49.705399999999997     45.640450000000001     47.467149999999997
H      47.713399999999993     50.595950000000002     46.866250000000001
H      46.932800000000000     46.639349999999993     51.016349999999996
H      46.249700000000004     48.982050000000001     51.183249999999994
H      49.750299999999996     47.077050000000000     45.266950000000001
H      48.752399999999994     49.291950000000000     44.816750000000006
