53

C      45.092749999999995     45.842949999999995     46.659720000000000
C      50.564250000000001     49.628750000000011     50.225790000000003
C      44.893149999999999     47.138150000000003     45.875750000000004
C      50.392650000000010     50.951650000000001     49.494990000000001
C      46.089950000000002     45.729149999999997     47.736160000000012
C      50.031450000000000     48.418550000000003     49.816090000000003
C      45.106349999999999     49.706149999999994     45.723200000000006
C      48.575650000000003     52.220050000000001     48.288070000000005
C      45.303549999999994     51.003050000000002     46.388820000000003
C      47.219949999999997     52.227350000000001     47.599590000000006
C      48.254950000000001     47.153750000000002     48.743520000000004
C      45.526249999999997     48.460149999999999     46.359170000000006
C      49.148549999999993     50.980249999999998     48.679060000000007
C      46.566650000000003     51.024149999999999     47.107270000000007
C      46.910049999999991     46.973750000000003     48.035190000000014
C      48.860750000000003     48.504850000000005     48.964510000000004
C      46.524949999999997     48.304050000000004     47.397069999999999
C      48.324950000000008     49.739549999999994     48.395020000000002
C      47.052749999999996     49.741550000000004     47.764290000000003
C      44.525250000000000     44.566350000000000     46.075560000000003
C      43.889850000000003     44.596550000000001     44.829330000000006
C      44.021549999999998     45.803550000000001     44.087742000000006
C      44.327649999999998     47.132950000000001     44.475010000000005
C      44.158450000000002     48.471450000000004     43.998706000000006
C      44.405349999999999     49.793549999999996     44.489870000000003
C      51.576650000000008     49.690150000000003     51.297700000000006
C      52.182650000000002     50.919350000000009     51.840800000000002
C      50.952350000000003     52.150049999999993     49.985790000000009
C      51.923250000000003     52.050750000000008     51.040930000000003
C      46.585349999999998     44.374549999999999     47.994720000000001
C      46.175050000000006     43.120750000000001     47.246650000000002
C      44.652949999999997     43.218049999999998     46.880740000000003
C      46.259349999999998     53.318950000000001     47.233919999999998
H      50.636749999999999     47.557250000000010     50.387420000000006
H      49.417250000000003     52.973249999999993     48.375810000000001
H      44.834949999999999     52.219749999999998     45.818220000000004
H      48.728649999999995     46.334150000000001     49.284800000000004
H      43.339649999999999     43.848250000000000     44.474390000000007
H      43.511749999999999     45.955050000000000     43.135029999999986
H      43.623150000000003     48.375349999999997     43.145429999999990
H      43.928649999999998     50.746949999999998     43.934227000000007
H      51.989649999999997     48.808750000000003     51.898960000000002
H      52.660350000000001     50.975450000000002     52.864970000000014
H      50.730250000000005     53.150150000000011     49.442410000000002
H      52.269150000000003     52.991650000000000     51.357050000000001
H      46.982349999999997     44.138449999999999     49.066460000000006
H      47.650849999999998     44.452750000000002     47.879140000000007
H      46.692550000000004     43.094349999999999     46.241840000000003
H      46.205649999999999     41.975949999999997     47.893990000000002
H      44.273550000000000     43.298150000000000     47.844880000000003
H      44.238450000000000     42.229250000000000     46.598610000000008
H      45.189450000000001     53.421950000000002     46.946570000000008
H      46.922450000000005     54.024050000000003     47.636030000000005
