18

C      47.823099999999997     47.791079999999994     48.810350000000000
C      47.888500000000001     48.364210000000000     47.399050000000003
C      46.510600000000004     47.512639999999998     49.411649999999995
C      46.725000000000001     48.635050000000000     46.591549999999998
C      49.161300000000004     47.394509999999997     49.526449999999997
C      49.316400000000009     48.518359999999994     46.813850000000002
C      45.555799999999998     47.753049999999995     48.463949999999997
C      45.483200000000004     48.074199999999998     47.130650000000003
C      50.340600000000002     47.466539999999995     48.782650000000004
C      50.433199999999999     47.937279999999994     47.415549999999996
H      46.303899999999999     47.251529999999995     50.370649999999998
H      46.951799999999999     49.179020000000001     45.489450000000005
H      49.023200000000003     46.820979999999999     50.510549999999995
H      49.465200000000003     49.152780000000000     45.810649999999995
H      44.565200000000004     47.517769999999999     48.749849999999995
H      44.525900000000000     47.972469999999994     46.596350000000001
H      51.251500000000000     46.856829999999995     49.203850000000003
H      51.474100000000000     48.080859999999994     46.903350000000003
