18

C      48.582099999999990     46.908749999999991     47.606699999999996
C      47.405200000000008     47.156450000000007     48.428100000000001
C      49.034000000000006     47.775949999999995     46.619799999999998
C      47.510100000000008     46.249150000000000     49.639799999999994
C      48.218900000000005     48.912050000000008     46.379500000000000
C      46.725099999999998     48.436149999999998     48.344099999999997
C      49.406400000000005     45.828049999999998     48.008200000000002
C      48.735900000000001     45.640850000000000     49.288499999999999
C      47.075199999999995     49.256250000000009     47.249000000000002
C      46.643000000000001     50.534449999999993     46.803100000000001
H      49.703000000000003     47.487049999999996     45.743600000000001
H      47.255700000000004     45.986550000000001     50.527900000000002
H      48.239999999999995     49.448450000000001     45.472099999999998
H      45.933700000000002     48.795549999999992     49.237799999999993
H      50.291200000000003     45.121449999999996     48.013199999999998
H      49.314499999999995     45.025849999999998     49.985199999999992
H      47.040300000000002     50.974150000000002     45.871400000000001
H      45.708799999999997     50.661349999999999     47.393000000000001
