17

C      48.571150000000003     47.318799999999989     47.709949999999992
C      47.193849999999998     47.398600000000002     48.446550000000002
C      49.908450000000002     47.081800000000001     48.376750000000001
C      47.404550000000000     46.617400000000004     49.662050000000008
C      48.354050000000001     48.237299999999991     46.542950000000005
C      46.256050000000002     48.248999999999995     47.895850000000010
C      49.889349999999993     46.501400000000004     49.644950000000009
C      48.577249999999992     46.300200000000004     50.344850000000008
C      47.715949999999992     49.211900000000000     45.430350000000004
C      47.110550000000003     48.722700000000003     46.905950000000004
H      50.760549999999995     47.145399999999995     47.952750000000009
H      46.479950000000002     46.675100000000000     50.269550000000010
H      47.241749999999996     48.692300000000003     44.554249999999996
H      45.239450000000005     48.640999999999991     48.359650000000016
H      50.679450000000003     46.608899999999991     50.345650000000006
H      48.613950000000003     45.900300000000001     51.445750000000004
H      48.035950000000000     50.099699999999999     45.150250000000000
