5

C      48.283599999999993     47.704399999999985     48.517249999999990
C      47.770600000000002     48.680799999999991     47.291650000000004
H      48.949099999999994     48.621799999999993     48.943950000000001
O      47.050900000000006     49.511499999999998     47.056049999999999
O      48.460300000000004     46.488500000000002     48.464349999999996
