18

C      47.816099999999992     48.406849999999991     48.501249999999992
C      48.080300000000001     47.279450000000004     47.447949999999999
C      48.865700000000011     49.386850000000003     48.528350000000003
C      49.412300000000009     46.884849999999993     46.998849999999997
C      46.558800000000012     48.627149999999993     49.130449999999996
C      46.813900000000011     46.628549999999997     47.184349999999995
C      50.226400000000005     49.048150000000000     48.114149999999995
C      50.420500000000011     47.751849999999997     47.543549999999996
C      45.269800000000011     47.918450000000000     48.788749999999993
C      45.522200000000005     46.809549999999994     47.773249999999997
H      48.780400000000007     50.281749999999995     49.198849999999993
H      49.613700000000001     45.956449999999997     46.491349999999997
H      46.203900000000012     49.470049999999993     49.641649999999998
H      47.057900000000011     45.718250000000005     46.358350000000002
H      50.911999999999999     49.720750000000002     48.655749999999998
H      51.583700000000000     47.429849999999995     47.558250000000001
H      44.416300000000000     47.976649999999999     49.346449999999990
H      44.836900000000007     46.108650000000004     47.175449999999998
