18

C      48.607249999999993     48.121449999999996     48.462649999999996
C      47.631849999999993     47.874350000000007     47.401350000000008
C      48.482750000000003     48.910349999999994     49.645250000000004
C      46.461649999999999     48.659949999999995     47.729250000000008
C      50.037150000000004     47.574749999999995     48.606150000000000
C      47.938949999999998     47.172250000000005     46.266750000000002
C      47.219749999999998     49.644450000000006     49.670349999999999
C      46.152149999999999     49.617050000000006     48.667950000000005
C      50.098049999999994     46.558250000000001     47.554249999999996
C      49.153150000000004     46.378950000000003     46.415649999999999
H      49.172949999999993     49.084949999999992     50.339749999999995
H      45.666750000000000     48.503349999999998     47.026250000000005
H      50.844549999999991     47.993650000000002     49.341149999999999
H      46.915249999999993     46.960049999999995     45.494550000000004
H      47.095849999999992     50.210549999999998     50.505449999999996
H      45.068750000000001     50.039450000000002     48.946950000000001
H      50.931249999999999     45.789450000000002     47.264049999999997
H      49.564749999999997     45.859049999999996     45.553650000000005
