18

C      48.127149999999993     47.313399999999994     48.422049999999984
C      47.679349999999999     48.495599999999996     47.586649999999999
C      48.869850000000000     47.597899999999996     49.659150000000004
C      48.010750000000002     49.894800000000004     48.017450000000004
C      47.419049999999999     45.967600000000004     48.188749999999992
C      47.188549999999999     48.121099999999998     46.275749999999995
C      49.273449999999997     48.888400000000004     50.030849999999994
C      48.881850000000000     50.000199999999992     49.086649999999999
C      46.936750000000004     45.858400000000003     46.887650000000001
C      46.662050000000001     46.861699999999999     45.852049999999998
H      49.278549999999996     46.793399999999991     50.511350000000000
H      47.894050000000000     50.829700000000003     47.472649999999994
H      47.667450000000002     45.242099999999994     49.086949999999995
H      46.929150000000000     48.816699999999997     45.578749999999992
H      49.747050000000002     49.152599999999993     51.008350000000000
H      49.171350000000004     51.143900000000002     49.216549999999991
H      46.777749999999997     44.856099999999998     46.658049999999996
H      46.252949999999998     46.709800000000001     44.991650000000000
