18

C      48.641449999999992     47.748549999999994     47.840149999999994
C      47.455850000000012     48.379350000000002     48.469050000000010
C      49.853250000000003     47.859750000000005     48.634450000000001
C      47.370650000000012     48.565750000000008     49.952749999999995
C      48.820650000000001     47.298150000000007     46.402150000000006
C      46.300650000000005     48.289349999999999     47.501950000000008
C      49.799250000000001     48.677350000000004     49.834450000000004
C      48.636550000000014     48.831150000000008     50.445550000000011
C      47.603850000000008     47.219350000000006     45.502750000000006
C      46.502150000000015     47.618750000000006     46.305850000000007
H      50.768450000000001     47.448149999999998     48.221450000000004
H      46.498950000000008     48.714250000000007     50.439549999999997
H      49.889050000000012     47.483750000000001     46.045749999999998
H      45.175049999999999     48.378150000000005     47.594850000000008
H      50.824950000000001     48.935950000000005     50.114450000000005
H      48.667650000000009     49.038250000000005     51.586849999999998
H      47.649450000000002     46.961749999999995     44.413150000000002
H      45.648450000000011     47.493150000000000     45.690049999999999
