18

C      48.013049999999993     47.063349999999986     48.064549999999997
C      47.666049999999998     48.162550000000010     46.940049999999992
C      49.326949999999989     46.557149999999993     48.475949999999990
C      48.713749999999997     49.167050000000003     46.827750000000002
C      46.886049999999997     46.717950000000002     48.916249999999998
C      46.391549999999995     48.592950000000002     46.854250000000000
C      50.495649999999991     47.280749999999998     48.076050000000002
C      49.844150000000006     48.481349999999992     47.550449999999991
C      45.507050000000000     46.830749999999995     48.464149999999997
C      45.310150000000000     47.892449999999997     47.577549999999995
H      49.505549999999992     45.778949999999995     49.243050000000004
H      48.812750000000001     50.221050000000005     46.360350000000004
H      47.322150000000001     45.968449999999990     49.639649999999996
H      46.115150000000000     49.615849999999995     46.410949999999993
H      51.531849999999999     47.193449999999999     48.677450000000000
H      50.628750000000004     49.202349999999996     47.820950000000003
H      44.549549999999996     46.032550000000001     48.883450000000003
H      44.468150000000001     48.419449999999998     47.209949999999999
