5

C      48.317799999999991     48.137299999999989     48.288499999999985
H      48.711099999999995     48.957599999999999     48.994700000000009
H      47.288900000000005     48.184100000000001     48.725200000000001
H      48.059100000000001     47.042400000000001     48.524299999999997
H      48.205600000000004     48.034700000000001     47.005299999999991
