8

C      48.819499999999984     47.164649999999995     48.644749999999995
C      48.695300000000003     48.592350000000003     47.893550000000005
C      47.492300000000000     46.750149999999998     48.265749999999997
H      49.427499999999995     46.528550000000003     48.990449999999996
H      47.963499999999996     48.288350000000001     47.009550000000004
H      49.102099999999993     49.471449999999997     48.370149999999995
H      49.593199999999996     48.366350000000004     47.590949999999999
O      46.406800000000004     46.609150000000000     47.818349999999995
