5

C      47.479599999999998     48.302949999999996     48.515619999999991
C      48.333100000000002     47.925449999999998     47.519980000000004
H      49.343299999999999     47.551349999999999     47.734659999999998
H      47.978999999999999     47.977149999999995     46.541579999999996
O      46.656700000000001     48.448650000000001     49.458420000000004
