48

C      48.064799999999991     48.051499999999990     48.594619999999992
C      47.493999999999993     48.668799999999997     47.347520000000003
C      50.148400000000002     44.591900000000003     47.131420000000006
C      48.515200000000000     46.611799999999995     48.286919999999995
C      47.264499999999998     47.390799999999992     46.288120000000006
C      50.375899999999994     44.608399999999996     48.552319999999995
C      49.529499999999999     45.731599999999993     49.096819999999994
C      48.201199999999993     46.340499999999999     46.966719999999995
C      48.409299999999995     48.975999999999992     49.683320000000009
C      48.005199999999995     50.420600000000000     49.601820000000004
C      47.825899999999997     51.252000000000002     48.377319999999997
C      47.632599999999996     50.157099999999993     47.381720000000001
C      48.552199999999999     48.391799999999996     51.054920000000010
C      48.207499999999989     49.747700000000002     51.732619999999997
C      48.080499999999994     50.993099999999991     51.003320000000002
C      49.300999999999995     45.994300000000003     50.495120000000000
C      48.820499999999996     47.108499999999999     51.468119999999999
C      46.025299999999994     47.408299999999990     45.402670000000001
C      45.741599999999998     46.434800000000003     44.366640000000004
C      47.201699999999995     46.951099999999990     44.640400000000000
C      44.863000000000000     48.060299999999991     46.390619999999998
C      45.603399999999993     44.915799999999997     45.170119999999997
C      47.945199999999993     51.049999999999990     46.105519999999999
C      51.283099999999997     43.638900000000000     49.429720000000003
C      48.420699999999989     52.320399999999999     51.657420000000002
H      50.699499999999993     43.690700000000000     46.613020000000006
H      48.549299999999995     49.981800000000000     52.684120000000007
H      50.787599999999991     42.873500000000000     49.909720000000007
H      50.006700000000002     45.248100000000001     51.189820000000012
H      48.578899999999997     46.704099999999990     52.364320000000006
H      46.807199999999995     51.187099999999994     45.608819999999994
H      45.579799999999999     46.227299999999993     43.315879999999993
H      47.904799999999994     47.520599999999995     43.999219999999994
H      44.280099999999997     49.125799999999991     46.024420000000006
H      43.978299999999997     47.353199999999994     46.172219999999996
H      44.933299999999996     47.646499999999996     47.482920000000007
H      44.380099999999999     44.731999999999992     45.363119999999995
H      45.604799999999997     44.099799999999995     44.387969999999996
H      46.027899999999995     45.173299999999990     46.039420000000007
H      48.400499999999994     50.400699999999993     45.258420000000001
H      47.716699999999996     52.336899999999993     48.154319999999998
H      48.230799999999995     52.052000000000000     46.235619999999997
H      52.021700000000003     43.573799999999999     48.589619999999996
H      51.441799999999994     44.270199999999996     50.205520000000007
H      48.832400000000000     52.426299999999991     52.611220000000003
H      48.752299999999998     53.126500000000000     51.021919999999994
H      49.139699999999998     45.260199999999990     45.382990000000007
N      49.103299999999997     45.335999999999991     46.377120000000005
