18

C      47.482799999999997     48.749999999999993     47.973999999999997
C      47.763300000000001     47.301099999999998     47.833799999999997
C      47.654700000000005     49.771699999999996     46.866399999999999
C      48.175199999999990     46.856200000000001     46.483699999999999
C      47.046899999999994     49.236899999999991     49.270899999999997
C      47.641099999999994     46.500200000000000     49.123199999999997
C      47.998500000000007     49.276100000000000     45.538800000000009
C      48.533299999999997     47.887499999999996     45.635900000000007
C      47.203500000000005     48.438499999999998     50.434800000000010
C      47.608000000000004     47.120799999999996     50.470100000000002
H      47.182100000000005     50.682299999999998     47.322299999999998
H      48.629499999999993     45.762099999999997     46.370300000000000
H      46.875100000000003     50.400999999999996     49.238000000000000
H      47.896400000000000     45.317700000000002     48.849500000000006
H      47.845799999999997     49.890200000000007     44.645099999999999
H      49.124899999999997     47.406599999999997     44.899000000000001
H      46.886099999999999     48.797399999999996     51.354900000000001
H      47.628099999999989     46.575400000000002     51.314300000000003
