18

C      48.213049999999996     48.474519999999998     48.445199999999993
C      47.659050000000001     47.599820000000001     47.221600000000002
C      49.659050000000001     47.998100000000001     48.481700000000004
C      48.473649999999999     46.894010000000002     46.168500000000002
C      47.358750000000001     49.034810000000000     49.507000000000005
C      46.384050000000002     47.027270000000001     47.396299999999997
C      50.527549999999998     47.569490000000002     47.411600000000000
C      49.932650000000002     46.865079999999999     46.370100000000001
C      46.104749999999996     48.087530000000001     49.671400000000006
C      45.470549999999996     47.395220000000002     48.468400000000003
H      50.098250000000000     48.488179999999993     49.232200000000006
H      48.190350000000002     46.200290000000003     45.567200000000000
H      47.466349999999998     49.912289999999999     50.214900000000000
H      46.158850000000001     46.481510000000000     46.519500000000001
H      51.620150000000002     47.614080000000001     47.624700000000004
H      50.858749999999993     46.087710000000001     45.880800000000001
H      45.359549999999999     48.039130000000000     50.432800000000000
H      44.379849999999998     47.232199999999999     48.564200000000000
