18

C      48.343349999999994     48.294100000000000     48.529399999999988
C      47.518650000000008     47.805800000000005     47.394799999999996
C      49.606850000000009     48.989400000000003     48.222999999999999
C      47.650549999999996     48.224100000000007     45.959499999999998
C      47.778850000000006     47.872799999999998     49.831099999999999
C      46.521550000000005     46.801800000000000     47.587599999999995
C      49.787050000000008     49.084699999999998     46.771400000000000
C      48.709950000000006     49.196200000000005     45.728699999999996
C      46.842650000000006     47.113200000000006     50.187300000000008
C      46.140450000000001     46.513600000000011     49.054999999999993
H      50.397750000000002     49.136600000000001     48.906499999999994
H      46.978250000000003     47.891000000000005     45.223799999999997
H      48.232749999999996     48.582999999999998     50.631699999999995
H      46.048649999999995     46.607800000000012     46.582400000000000
H      50.801450000000003     49.495900000000006     46.449099999999994
H      48.770550000000000     49.998499999999993     44.751300000000001
H      46.615049999999997     46.890799999999999     51.248699999999999
H      45.198549999999997     46.001500000000007     49.321799999999996
