18

C      48.865399999999994     48.319299999999998     47.844245000000001
C      47.387300000000003     47.965800000000002     48.147154999999998
C      49.271300000000004     49.107500000000009     46.723605000000006
C      46.441499999999998     48.729199999999999     47.335915000000000
C      49.644200000000005     47.669900000000005     48.898415000000000
C      46.945299999999996     47.036500000000004     49.017804999999996
C      48.239800000000010     50.005000000000003     46.183244999999999
C      46.834099999999999     49.976500000000001     46.663995000000000
C      49.122599999999998     46.562200000000004     49.702005000000000
C      47.849400000000010     46.200700000000005     49.739404999999991
H      50.474300000000007     49.209800000000001     46.653234999999995
H      45.337499999999999     48.605899999999998     47.355244999999996
H      50.662500000000001     47.535600000000002     49.110804999999999
H      45.834300000000006     46.900800000000004     49.050344999999993
H      48.570600000000006     50.707799999999999     45.462005000000005
H      46.155000000000008     50.556000000000004     46.190674999999999
H      50.088400000000000     46.039999999999999     50.367035000000001
H      47.721800000000009     45.292200000000001     50.537994999999995
