6

C      48.346599999999988     48.247000000000000     48.599949999999993
C      47.844799999999992     48.042800000000000     47.482450000000000
H      48.594200000000001     47.472800000000007     49.289950000000005
H      48.459599999999995     49.129599999999996     49.205349999999996
H      47.405799999999999     48.822000000000003     46.710049999999995
H      47.691299999999998     46.870400000000004     47.202250000000006
