18

C      48.378074999999995     48.375169999999990     47.937649999999998
C      47.488514999999992     47.352384000000001     47.389650000000003
C      48.096085000000002     49.649979999999999     47.678850000000004
C      46.225465000000000     47.740997999999998     46.779949999999999
C      49.635114999999999     48.209240000000001     48.670650000000009
C      47.962215000000000     46.015160000000023     47.856349999999999
C      47.017505000000000     50.071770000000001     46.768950000000004
C      45.984345000000005     49.083739999999999     46.422850000000004
C      50.061284999999998     46.887260000000005     49.181550000000001
C      49.000725000000003     45.912260000000018     48.836449999999999
H      48.633904999999999     50.431789999999992     48.104950000000002
H      45.636444999999995     47.008060000000008     46.528750000000002
H      50.432314999999988     48.948239999999998     49.082250000000002
H      47.436144999999996     45.021159999999981     47.944450000000003
H      47.117125000000001     51.029740000000004     46.265950000000004
H      45.046535000000006     49.659129999999990     46.066350000000000
H      50.953464999999994     46.798460000000020     49.933650000000000
H      48.567554999999999     44.970259999999996     49.259750000000004
