6

C      47.599949999999993     48.409404999999992     48.364099999999993
C      48.729649999999999     47.570194999999998     48.174000000000007
H      49.448050000000002     47.880664999999993     47.635900000000007
H      46.551949999999998     48.128065000000007     48.165599999999998
H      48.730349999999994     46.492675000000006     47.985300000000009
H      47.795049999999996     49.507324999999994     48.307600000000008
