19

C      47.593699999999998     47.951149999999991     48.353599999999993
C      48.805800000000005     47.192950000000003     48.076599999999999
C      47.556899999999999     48.963050000000010     49.395000000000010
C      49.950000000000003     47.279650000000004     48.939599999999999
C      46.334000000000003     47.596150000000002     47.586900000000000
C      48.965000000000003     46.594749999999998     46.746000000000002
C      48.627499999999998     48.833649999999992     50.357900000000001
C      49.606700000000004     47.809950000000001     50.272000000000006
C      46.445300000000003     47.196150000000003     46.140599999999999
C      47.773099999999999     46.776150000000001     45.932800000000000
H      46.742300000000000     49.674949999999995     49.328100000000006
H      50.590199999999996     46.377250000000004     48.782400000000010
H      45.967200000000005     46.506349999999998     47.928400000000003
H      50.035899999999998     46.397050000000000     46.088799999999999
H      48.964199999999991     49.420549999999992     51.128399999999999
H      50.204400000000007     47.470150000000004     51.098500000000001
H      45.660600000000002     47.116150000000005     45.372199999999999
H      47.615000000000009     46.325050000000005     44.871600000000001
H      45.409800000000004     48.141649999999998     47.746100000000006
