18

C      48.388399999999990     47.716349999999991     48.898944999999998
C      48.109000000000002     47.860250000000008     47.405205000000002
C      49.591799999999999     48.585049999999995     49.304375000000000
C      49.118199999999995     48.526849999999996     46.455314999999999
C      47.297599999999996     47.189149999999998     49.691524999999999
C      46.867999999999995     47.432550000000006     47.129155000000004
C      50.378099999999996     49.332049999999995     48.291355000000003
C      50.429699999999997     49.030150000000006     46.846115000000005
C      46.107799999999997     46.509650000000008     49.263455000000000
C      45.737400000000001     46.809449999999998     47.894815000000001
H      49.632600000000004     48.805750000000003     50.337115000000004
H      49.134899999999995     48.628550000000004     45.236415000000001
H      47.313699999999997     47.355050000000006     50.763584999999999
H      46.508400000000002     47.313850000000002     46.122545000000002
H      51.313600000000001     49.817750000000004     48.513705000000002
H      51.151999999999994     49.341950000000011     46.068185000000000
H      45.549599999999998     46.182249999999996     50.099245000000003
H      44.686399999999999     46.719450000000009     47.411695000000002
