40

C      49.542949999999990     47.816199999999988     47.292299999999990
C      49.350249999999996     46.319499999999998     47.535899999999998
C      47.520449999999990     47.944400000000002     51.373499999999993
C      47.769050000000000     46.512000000000000     50.880399999999995
C      49.183949999999989     48.907100000000000     48.050700000000006
C      48.842849999999991     45.674599999999998     48.780000000000001
C      48.045449999999995     48.973900000000000     50.584100000000007
C      47.372749999999989     48.399400000000000     52.824600000000004
C      48.560549999999999     48.306399999999996     49.318500000000000
C      48.543950000000002     46.838700000000003     49.652699999999996
C      50.193350000000002     48.308000000000007     46.015400000000000
C      50.265749999999990     47.396099999999997     44.850300000000004
C      50.337749999999993     45.138599999999997     44.081400000000002
C      49.906749999999995     45.961199999999998     45.175899999999999
C      46.032949999999992     48.085499999999996     51.730500000000006
C      45.260550000000002     46.711199999999998     51.912300000000002
C      45.738449999999993     45.459800000000001     51.764600000000002
C      47.179749999999991     45.249800000000000     51.408100000000005
C      50.319849999999995     49.687600000000003     45.689999999999998
C      50.823149999999991     50.038499999999999     44.261200000000002
C      51.129249999999992     49.040799999999997     43.267399999999995
C      50.701149999999991     47.772900000000000     43.545400000000001
C      49.787950000000002     50.834299999999999     46.344399999999993
C      49.203150000000001     50.412199999999999     47.682100000000005
C      49.626649999999991     45.469299999999997     46.366000000000000
H      48.650749999999995     44.579499999999996     49.025999999999996
H      48.044249999999998     50.067400000000006     50.757499999999993
H      47.716949999999990     47.727899999999998     53.548500000000004
H      45.400050000000000     48.862499999999997     51.507199999999997
H      44.320050000000002     46.913600000000002     52.246600000000001
H      45.103649999999995     44.499499999999998     51.845299999999995
H      47.641950000000001     44.373199999999997     51.144999999999996
H      51.238650000000000     51.059100000000001     43.771299999999997
H      51.679949999999998     49.380399999999995     42.451499999999996
H      50.974550000000001     47.090100000000000     42.778599999999997
H      49.472749999999998     51.626800000000003     45.765400000000000
H      48.962249999999990     51.042100000000005     48.681899999999999
H      49.624049999999990     44.406300000000002     46.426400000000001
H      47.845750000000002     49.423400000000001     52.784099999999995
O      50.605649999999990     44.382300000000001     43.356899999999996
