19

C      48.478749999999991     48.647549999999995     47.434699999999992
C      47.701650000000001     47.764150000000001     48.376500000000000
C      49.513149999999996     48.346650000000004     46.565800000000003
C      48.344949999999997     46.577850000000005     48.573299999999996
C      47.527349999999998     49.982450000000000     47.494700000000002
C      46.192949999999996     47.496250000000003     48.151000000000003
C      49.958250000000000     47.028050000000007     46.925000000000004
C      49.561549999999990     46.226950000000002     48.034100000000002
C      46.628149999999998     49.930350000000011     48.534199999999991
C      46.720149999999997     48.530350000000006     49.285800000000002
H      45.591949999999997     47.101150000000004     49.027399999999993
H      49.961349999999996     49.139550000000007     45.731900000000003
H      48.056750000000001     45.679050000000004     49.079100000000004
H      47.609949999999998     50.746750000000006     46.783200000000001
H      45.348549999999996     48.160650000000004     47.104999999999997
H      50.651450000000004     46.576950000000004     46.387099999999997
H      49.895150000000008     45.204950000000004     48.227299999999993
H      45.969549999999998     50.795049999999996     48.680599999999991
H      46.138349999999996     48.307350000000007     50.268099999999997
