6

C      47.102750000000000     48.032134999999997     47.473250000000000
C      48.362949999999998     47.716745000000003     48.237449999999995
H      46.611050000000006     49.146995000000004     47.429150000000007
H      46.595550000000003     47.196714999999998     47.189650000000000
H      48.170149999999992     46.853004999999996     48.810350000000000
H      49.404449999999997     48.158014999999992     47.931849999999997
