18

C      48.103039999999993     47.921749999999989     47.388099999999994
C      47.812330000000003     48.137550000000005     48.854399999999998
C      48.188849999999988     49.307350000000000     46.777400000000000
C      47.726119999999995     49.209249999999997     49.683499999999995
C      48.313279999999992     46.640749999999997     46.724099999999993
C      47.579179999999994     46.843350000000001     49.524699999999996
C      48.179159999999996     50.391549999999995     47.566599999999994
C      48.122619999999998     50.477850000000004     48.979499999999987
C      48.533360000000002     45.514550000000000     47.529299999999992
C      47.945620000000005     45.610050000000001     48.891999999999996
H      48.194599999999994     49.392050000000012     45.504599999999996
H      47.178389999999993     49.463349999999991     50.495400000000004
H      48.503249999999994     46.329849999999993     45.694299999999998
H      46.948869999999999     46.720550000000003     50.447399999999988
H      48.393319999999989     51.355450000000005     47.231799999999993
H      48.193929999999995     51.405550000000005     49.536099999999990
H      49.051130000000001     44.594449999999995     46.987799999999993
H      47.783569999999997     44.843049999999991     49.437600000000003
