5

C      47.766599999999990     48.186099999999996     48.154599999999995
H      47.170400000000001     47.114600000000003     48.375500000000002
H      47.261099999999999     48.885399999999997     48.751700000000000
H      47.448700000000002     48.659200000000006     47.248300000000000
H      48.829599999999999     47.934400000000004     48.434600000000003
