130

C      48.722894999999994     52.964404999999985     44.391249999999999
C      45.027175000000007     51.701304999999991     41.636849999999995
C      46.509185000000002     47.087704999999985     45.150549999999996
C      46.954705000000004     51.383904999999984     43.378650000000007
C      45.952645000000004     50.810704999999984     42.498149999999995
C      47.073615000000004     50.101704999999995     43.018749999999997
C      47.115405000000003     47.402804999999987     43.810249999999996
C      49.520325000000007     46.921104999999983     43.305250000000001
C      47.550225000000005     48.677004999999994     43.165850000000006
C      48.502175000000001     47.792504999999991     43.797750000000008
C      44.646345000000004     52.977504999999994     42.281549999999996
C      43.812275000000007     53.943604999999991     41.360549999999989
C      45.727475000000005     46.007104999999996     46.020649999999989
C      47.117705000000001     46.224604999999983     46.187449999999998
C      44.490675000000003     51.291904999999986     40.257449999999992
C      43.892395000000000     52.374204999999989     39.598950000000002
C      43.367545000000000     53.520604999999989     39.998450000000005
C      44.935345000000005     54.525904999999995     42.076750000000004
C      47.259235000000004     52.829804999999993     43.948650000000001
C      45.081985000000003     49.865104999999986     40.082650000000001
C      46.680445000000006     46.381704999999982     42.750650000000007
C      45.251045000000005     46.148604999999989     43.329750000000004
C      45.027755000000006     45.385304999999988     44.797049999999999
C      45.966635000000004     55.091304999999991     41.268650000000008
C      46.354195000000004     45.288004999999984     47.265349999999998
C      46.584535000000002     47.139304999999993     41.395349999999993
C      48.131644999999999     45.335704999999990     45.849249999999998
C      49.519525000000002     45.911004999999989     46.311349999999990
C      44.396265000000007     55.418036999999998     43.324050000000000
C      52.147024999999999     48.145504999999986     53.571950000000001
C      51.218424999999996     49.341704999999990     53.782449999999997
C      48.322505000000000     53.448304999999991     47.070549999999997
C      52.300625000000004     47.661704999999984     52.060850000000002
C      48.812685000000002     52.696804999999983     45.921849999999992
C      48.364255000000007     52.882304999999988     48.407150000000001
C      50.571325000000002     50.051504999999992     52.641750000000002
C      49.896724999999996     50.133204999999990     45.477350000000001
C      50.568125000000002     49.134404999999987     46.222549999999998
C      49.393925000000003     51.071604999999991     49.873449999999991
C      49.118165000000005     51.268104999999991     46.085650000000001
C      51.683224999999993     48.304604999999995     50.975249999999988
C      49.184585000000006     51.550504999999987     48.527549999999991
C      50.619824999999999     49.219304999999991     51.304349999999999
C      50.269925000000008     49.367104999999995     47.686849999999993
C      50.037125000000003     49.777404999999987     50.071050000000000
C      50.553925000000000     48.805604999999986     49.015949999999989
C      49.434225000000005     50.607904999999988     47.405249999999995
C      49.773225000000004     51.382604999999984     52.434550000000002
C      49.298435000000005     51.976904999999988     51.128450000000001
C      48.166045000000004     52.834504999999993     50.840150000000008
C      47.701285000000006     53.370404999999991     49.549350000000004
C      50.894824999999997     50.340604999999996     54.930250000000001
C      49.446425000000005     51.033204999999995     55.147350000000003
C      48.990265000000001     51.456904999999992     53.687049999999999
C      53.158324999999998     47.827504999999988     54.525349999999989
C      50.289824999999993     52.597804999999994     53.025850000000005
C      49.013945000000000     52.086704999999995     56.365049999999997
C      51.024725000000004     49.254404999999991     56.186849999999993
C      48.714425000000006     49.991604999999993     55.868949999999998
C      47.575185000000005     50.963004999999995     53.037949999999995
C      43.511215000000000     43.157404999999983     46.227150000000009
C      43.110305000000004     42.524704999999983     44.966049999999996
C      44.066485000000007     42.325004999999990     47.361949999999993
C      43.028595000000003     41.109404999999995     45.025050000000007
C      43.261585000000004     44.675704999999994     46.232749999999996
C      42.541325000000001     43.400104999999996     43.950350000000000
C      43.929565000000004     40.984504999999984     47.414950000000005
C      43.380435000000006     40.324304999999995     46.245549999999994
C      43.375695000000000     45.334804999999989     45.095650000000006
C      42.463055000000004     44.809104999999988     43.962350000000001
H      44.442275000000002     48.936404999999993     40.622349999999997
H      43.412045000000006     52.370104999999995     38.574750000000009
H      42.787045000000006     54.189904999999996     39.206550000000007
H      47.076075000000003     53.469904999999983     42.984350000000006
H      46.301525000000005     53.474004999999991     44.557049999999990
H      44.909665000000004     49.376104999999995     39.148250000000004
H      46.212004999999998     49.780104999999992     40.311750000000004
H      47.223985000000006     45.677204999999987     43.112750000000005
H      44.616715000000006     47.088304999999991     43.453550000000007
H      44.626565000000006     45.474304999999987     42.693649999999991
H      45.515775000000005     44.435604999999995     44.698049999999995
H      46.060205000000003     45.725304999999992     48.317049999999995
H      46.467184999999994     44.261704999999992     47.277249999999995
H      47.387255000000003     47.436704999999989     40.812950000000001
H      46.154485000000001     46.521404999999987     40.663049999999998
H      45.799685000000004     47.867404999999991     41.682749999999999
H      48.455145000000002     45.149904999999990     44.748149999999995
H      48.132865000000002     44.383604999999989     46.407950000000000
H      49.220705000000002     46.969004999999996     46.567549999999997
H      49.896224999999994     45.348804999999984     47.116050000000001
H      50.282224999999997     46.035804999999996     45.607950000000002
H      44.626365000000000     56.551595000000006     43.176649999999995
H      45.154585000000004     54.992604999999983     43.990150000000000
H      43.383225000000003     55.179204999999996     43.718950000000007
H      47.765945000000002     54.330404999999985     46.781850000000006
H      52.968025000000004     46.878604999999993     52.075849999999988
H      50.031724999999994     49.933504999999982     44.350249999999988
H      50.874725000000005     48.096804999999989     45.803649999999990
H      52.181225000000005     47.363504999999989     48.721449999999990
H      47.745725000000000     53.458404999999985     51.680149999999998
H      47.056695000000005     54.352904999999993     49.692149999999998
H      51.748224999999998     51.043304999999989     55.069150000000008
H      51.142325000000007     52.778304999999989     52.731549999999999
H      49.866525000000003     53.486004999999992     52.510950000000008
H      49.665824999999998     53.074104999999989     56.207349999999991
H      47.939395000000005     52.224804999999989     56.337649999999996
H      49.054975000000006     51.667404999999988     57.425249999999991
H      50.935425000000002     49.511204999999990     57.186149999999998
H      50.376825000000004     48.398004999999984     56.056849999999997
H      52.057124999999999     49.032304999999994     56.016850000000005
H      48.256994999999996     49.411104999999992     55.112949999999998
H      49.102244999999996     49.179404999999988     56.622349999999997
H      47.592504999999996     50.402704999999983     56.619349999999997
H      47.115035000000006     51.716004999999996     53.714749999999995
H      47.142194999999994     51.510804999999991     52.063449999999989
H      47.823275000000002     49.861504999999994     52.608949999999993
H      46.601515000000006     54.327404999999985     40.967849999999999
H      44.436305000000004     43.063304999999986     48.203550000000007
H      42.299605000000007     40.560104999999993     44.422750000000008
H      43.489515000000004     45.108904999999993     47.185549999999992
H      41.841375000000006     42.950904999999992     43.198750000000004
H      44.587695000000004     40.467904999999988     48.333050000000000
H      43.812995000000001     39.448404999999994     46.302049999999994
H      42.981015000000006     46.324704999999994     45.083149999999989
H      41.953304999999993     45.551404999999988     43.452349999999996
N      51.590824999999995     47.957504999999983     49.448149999999998
O      49.548425000000002     53.677604999999986     43.889049999999997
O      45.789345000000004     56.189575000000005     40.756450000000001
O      50.537724999999995     46.466004999999996     43.191949999999991
O      54.158624999999994     47.524404999999987     54.849049999999991
