42

C      45.199899999999992     48.957099999999997     49.080549999999988
C      45.220900000000000     47.586500000000001     49.320849999999993
C      53.323899999999995     49.036000000000001     48.024749999999997
C      49.272399999999990     49.330699999999993     44.968049999999991
C      46.259599999999992     49.156700000000001     48.061650000000000
C      51.788799999999995     47.282399999999996     47.750550000000004
C      49.672899999999998     47.939399999999992     44.968649999999997
C      52.086700000000000     48.636299999999991     47.400449999999992
C      46.038899999999998     46.376199999999997     49.049049999999994
C      48.556799999999996     49.659399999999991     46.193349999999995
C      48.245800000000003     45.747399999999999     48.141750000000002
C      50.588899999999995     46.848199999999991     47.143149999999991
C      47.221100000000007     46.719200000000001     48.324749999999995
C      49.385700000000000     46.137100000000004     47.235649999999993
C      47.358500000000006     48.145299999999992     47.882949999999994
C      48.601399999999998     48.356700000000004     47.006649999999993
C      49.338300000000004     47.272899999999993     46.290149999999997
C      44.140699999999995     49.947199999999995     49.208550000000002
C      43.142799999999994     49.456699999999984     49.976550000000003
C      43.080199999999998     47.966099999999997     50.439650000000000
C      44.175699999999999     47.073599999999999     50.234750000000005
C      54.240299999999998     48.102999999999994     48.618449999999996
C      53.919499999999999     46.711299999999994     48.707449999999994
C      53.723399999999998     50.433099999999996     47.440649999999991
C      52.640200000000000     46.216099999999997     48.512850000000000
C      41.543599999999998     47.942200000000000     51.016149999999996
H      40.760099999999994     48.618499999999997     50.516350000000003
H      49.176000000000002     50.179499999999990     44.270049999999998
H      46.316099999999992     50.146599999999992     47.495249999999999
H      50.066099999999992     47.382700000000000     44.085049999999995
H      51.533099999999997     49.192899999999995     46.590949999999992
H      45.850099999999998     45.417299999999997     49.605350000000001
H      48.187600000000003     50.628799999999998     46.324249999999992
H      48.320400000000006     44.567300000000003     48.426450000000003
H      44.142399999999995     50.977999999999994     48.847949999999997
H      42.340400000000002     50.215199999999996     50.190649999999991
H      43.948899999999995     46.061099999999996     50.337249999999997
H      55.239900000000006     48.743299999999991     48.586849999999998
H      54.706299999999999     46.078899999999990     49.144550000000010
H      52.300899999999999     45.248300000000000     48.844049999999996
O      41.462000000000003     47.222700000000003     51.914950000000005
O      53.883700000000005     51.432699999999997     46.976849999999999
