18

C      48.541949999999986     47.788529999999994     48.610399999999998
C      47.872749999999996     48.191870000000009     47.269300000000001
C      48.418650000000000     48.681840000000008     49.769400000000005
C      47.277149999999992     49.472600000000000     47.482600000000005
C      49.042149999999992     46.565950000000001     48.487700000000004
C      47.939849999999993     47.554360000000003     45.948900000000009
C      47.544049999999999     49.867690000000010     49.880200000000002
C      47.068950000000001     50.422260000000009     48.612899999999996
C      49.178950000000000     45.783850000000001     47.212699999999998
C      48.708249999999992     46.278030000000001     45.949900000000000
H      49.226649999999992     48.464860000000016     50.420699999999997
H      46.937950000000001     50.281880000000001     46.625799999999998
H      49.457350000000005     46.319010000000006     49.475200000000001
H      46.874549999999999     47.990370000000013     45.593100000000007
H      47.361949999999993     50.158060000000006     50.878599999999992
H      46.296049999999994     51.179670000000002     48.454599999999999
H      49.703950000000006     44.820329999999998     47.037800000000004
H      48.662949999999995     45.610140000000001     45.121400000000008
