5

C      48.299849999999992     48.055999999999997     47.588449999999995
H      48.856050000000003     48.987700000000004     47.319249999999997
H      48.622149999999998     48.214399999999998     48.685749999999999
H      47.143949999999997     48.167500000000004     47.740249999999989
H      48.625850000000007     47.012299999999996     47.314250000000001
