11

C      48.875000000000000     47.348499999999987     46.626400000000004
C      49.236100000000000     47.514499999999998     48.135199999999998
C      47.818100000000001     49.965600000000009     47.285499999999999
C      48.394700000000007     46.411199999999994     48.871900000000011
C      48.483800000000002     48.457599999999999     47.278800000000004
C      48.892600000000009     47.445499999999996     49.393100000000004
H      48.452300000000001     46.929299999999998     45.660700000000006
H      48.086500000000001     45.528499999999994     49.513000000000005
H      48.880299999999998     48.117699999999999     50.339299999999994
H      48.688400000000001     50.471500000000006     46.743800000000007
O      46.763900000000000     50.108599999999996     47.033000000000001
