18

C      47.776149999999987     47.847425000000001     48.805899999999994
C      48.110950000000003     48.553044999999997     47.509500000000003
C      46.356650000000002     47.503405000000001     48.907499999999999
C      47.125050000000002     49.226484999999997     46.608699999999999
C      48.883550000000000     47.124224999999996     49.477599999999995
C      49.621549999999999     48.900655000000000     47.312299999999993
C      45.354550000000003     47.789784999999995     47.896000000000001
C      45.768950000000004     48.876294999999999     47.064499999999995
C      50.224950000000007     47.373024999999998     49.262400000000000
C      50.569950000000006     48.357905000000002     48.291100000000000
H      46.421250000000001     47.085175000000007     50.003099999999989
H      47.535749999999993     49.766355000000004     45.729500000000002
H      48.688249999999996     46.233644999999996     50.270499999999998
H      49.985550000000003     49.714945000000000     46.617800000000003
H      44.388949999999994     47.736055000000007     48.152099999999990
H      44.895150000000001     49.106224999999995     46.430300000000003
H      50.919650000000004     46.854315000000000     49.744599999999991
H      51.611050000000006     48.742035000000001     48.130899999999997
