18

C      48.733599999999996     48.473399999999998     47.809499999999986
C      47.699500000000000     47.387599999999999     47.979900000000001
C      48.134000000000000     49.673600000000000     47.395299999999992
C      46.306199999999997     47.499500000000005     47.518999999999991
C      50.141500000000001     48.322200000000002     47.802999999999997
C      48.158700000000003     46.001799999999996     48.291899999999998
C      46.731499999999997     49.917600000000000     47.094999999999999
C      45.795299999999997     48.848300000000002     47.118799999999993
C      50.539099999999998     47.100100000000005     48.516099999999994
C      49.556699999999999     45.975599999999993     48.544299999999993
H      48.625100000000003     50.747099999999996     47.216700000000003
H      45.631000000000000     46.689299999999996     47.640999999999991
H      50.966000000000001     49.263600000000004     47.873699999999999
H      47.455300000000001     45.211300000000001     48.225300000000004
H      46.373699999999999     50.952999999999996     46.938800000000001
H      44.738399999999999     49.232300000000002     46.664699999999996
H      51.261600000000001     47.116700000000002     49.335300000000004
H      49.928800000000003     45.047000000000004     48.964900000000000
