18

C      48.334499999999991     47.174749999999996     48.230249999999998
C      47.948599999999992     48.567050000000009     47.770250000000004
C      48.703499999999998     46.225549999999998     47.381550000000004
C      47.864399999999996     48.675650000000005     46.393649999999994
C      48.602299999999993     47.185350000000000     49.700450000000004
C      47.219500000000004     49.618750000000006     48.542749999999998
C      49.037399999999998     46.582949999999997     46.011349999999993
C      48.450499999999998     47.794449999999998     45.365549999999999
C      48.228099999999991     48.176349999999999     50.696349999999995
C      47.460299999999997     49.095849999999999     49.890050000000002
H      48.800999999999995     45.394250000000000     47.601550000000003
H      47.179600000000001     49.488750000000010     46.122349999999997
H      48.810499999999998     45.966650000000001     49.973950000000002
H      46.962600000000002     50.605750000000000     48.374949999999998
H      49.031299999999995     45.406950000000009     45.779250000000005
H      48.558000000000000     48.062250000000006     44.286550000000005
H      48.329699999999995     47.670250000000010     51.713449999999995
H      47.025399999999998     49.573650000000001     50.647349999999989
