18

C      48.018149999999991     48.070449999999994     48.674849999999992
C      48.184950000000015     47.921849999999999     47.156349999999996
C      49.374350000000007     48.025050000000000     49.379950000000001
C      49.419650000000004     48.035950000000000     46.366949999999996
C      46.752750000000006     47.813750000000006     49.202649999999998
C      47.061850000000007     47.513550000000002     46.438350000000007
C      50.467250000000007     48.315750000000001     48.634549999999997
C      50.584249999999997     48.332250000000009     47.156749999999995
C      45.506950000000003     47.876350000000002     48.291450000000005
C      45.658749999999998     47.740349999999999     46.879049999999999
H      49.646450000000002     48.118850000000002     50.613750000000003
H      49.486450000000005     47.776949999999999     45.436650000000007
H      46.405649999999994     47.711550000000003     50.266849999999998
H      46.795950000000005     47.389350000000000     45.386249999999997
H      51.614549999999994     48.375550000000004     48.947949999999999
H      51.388750000000002     48.610650000000000     46.692150000000005
H      44.385450000000006     47.999350000000000     48.675950000000007
H      44.786650000000009     47.781849999999999     46.286149999999999
