11

C      47.037749999999996     46.979949999999988     48.077299999999987
C      49.515850000000000     47.855450000000005     47.156099999999995
C      48.165750000000003     48.153849999999991     47.867599999999996
C      49.135350000000003     48.312349999999995     48.762599999999992
H      45.859250000000003     46.876549999999995     47.756599999999992
H      50.132949999999994     48.533949999999990     46.534300000000002
H      50.140749999999997     46.904849999999996     47.341899999999995
H      47.581050000000005     48.970949999999988     47.222600000000000
H      49.229150000000004     47.575949999999992     49.465699999999998
H      49.258850000000002     49.253950000000003     49.175100000000000
O      47.267650000000003     46.746049999999997     49.202299999999994
