6

C      48.254449999999984     47.314999999999998     47.938949999999991
C      47.802650000000000     48.611699999999999     47.956749999999992
H      48.063049999999990     47.034400000000005     49.062249999999999
H      47.406649999999999     49.124399999999994     48.945550000000004
H      47.578149999999994     49.163700000000006     47.159450000000000
H      48.593350000000001     46.836299999999994     46.937750000000001
