18

C      48.582099999999990     47.560149999999993     49.198634999999996
C      45.626499999999993     47.643350000000005     46.849595000000001
C      50.079999999999998     47.646250000000002     49.081564999999998
C      48.518500000000003     48.839250000000000     49.886285000000001
C      47.442300000000003     46.607650000000000     48.577194999999996
C      44.702199999999991     47.873150000000003     45.781565000000001
C      50.855400000000003     48.751849999999997     49.706685000000000
C      49.769399999999990     49.463950000000004     50.323385000000009
C      46.293999999999997     46.690350000000002     47.898004999999998
C      45.801199999999994     48.702850000000005     45.950294999999997
H      50.528300000000002     47.134950000000003     48.322065000000002
H      47.480699999999999     49.377050000000004     49.862884999999999
H      48.006399999999999     45.691549999999999     49.233335000000004
H      43.997399999999999     48.167949999999998     44.930815000000003
H      52.002600000000001     48.863949999999996     49.802585000000001
H      49.884599999999992     50.308450000000001     51.069184999999997
H      45.779699999999991     45.952649999999998     47.498235000000001
H      46.774100000000004     49.224049999999998     45.931615000000001
