56

C      45.617500000000000     48.271999999999991     54.392049999999983
C      46.451200000000000     50.411099999999998     53.975149999999999
C      45.266700000000000     49.678199999999997     54.456050000000005
C      47.456500000000005     49.352300000000007     53.537450000000007
C      46.847700000000003     48.029100000000007     53.738050000000001
C      47.319599999999994     46.699000000000005     53.354749999999996
C      46.521200000000007     45.473800000000004     53.237650000000002
C      46.714100000000002     47.542300000000004     45.996749999999992
C      48.151899999999998     47.362500000000004     45.447949999999992
C      49.587900000000005     47.677799999999998     50.406850000000006
C      50.708600000000004     47.162699999999994     49.810149999999993
C      46.912999999999997     47.460400000000000     47.401250000000005
C      49.406599999999997     47.182899999999997     46.198650000000001
C      48.213899999999995     47.840200000000003     49.723849999999999
C      50.866799999999998     47.248500000000000     48.358350000000002
C      48.174800000000005     47.700399999999995     48.231250000000003
C      49.533000000000001     47.330400000000004     47.616249999999994
C      45.329999999999998     47.559999999999995     45.360749999999996
C      45.361900000000006     47.384099999999997     43.851550000000003
C      46.592900000000000     47.529000000000003     43.338849999999994
C      47.855000000000004     47.361799999999995     43.982749999999996
C      49.995199999999997     48.125300000000003     51.829149999999998
C      49.087500000000006     48.800900000000006     52.859949999999998
C      51.400599999999997     47.589899999999993     52.129750000000001
C      51.891400000000004     47.293100000000003     50.859650000000002
C      44.197699999999998     47.286099999999998     46.308549999999997
C      42.828900000000004     46.947499999999998     45.973249999999993
C      42.711700000000008     48.878300000000003     43.332749999999990
C      44.571799999999996     47.607499999999995     42.606749999999991
C      44.440399999999997     46.730700000000006     47.633849999999995
C      45.778800000000004     47.015400000000007     48.266750000000002
C      45.867999999999995     47.020699999999998     49.764949999999999
C      46.865300000000005     47.813200000000002     50.367649999999998
C      53.381100000000004     47.467899999999993     50.930250000000001
C      43.321100000000001     48.132600000000004     42.262850000000000
H      44.832599999999999     47.557899999999997     54.584950000000006
H      46.573999999999998     51.542499999999997     54.135549999999995
H      44.183899999999994     50.003200000000000     54.730850000000004
H      48.362200000000001     46.416800000000002     53.140749999999997
H      50.214900000000000     46.828099999999999     45.605049999999991
H      51.745800000000003     47.671600000000005     48.082750000000004
H      46.760800000000003     47.872499999999995     42.359049999999996
H      48.731999999999999     47.490100000000005     43.328249999999997
H      51.939999999999998     48.035099999999993     52.948549999999997
H      44.939599999999999     46.962799999999994     41.908149999999992
H      43.715500000000006     46.829699999999995     48.139550000000000
H      45.119200000000006     46.556099999999994     50.326750000000004
H      44.490899999999996     45.604800000000004     47.459149999999994
H      46.884100000000004     47.849399999999996     51.368449999999996
H      42.895600000000002     48.100299999999997     41.269149999999996
H      43.211200000000005     49.080599999999997     44.357050000000001
H      41.535899999999998     48.958400000000005     43.408649999999994
O      46.567200000000000     44.457500000000003     52.723650000000006
O      54.464100000000002     47.637800000000006     51.248050000000006
O      41.737300000000005     46.688600000000001     45.716549999999998
O      48.955100000000002     49.893800000000006     53.359449999999995
