9

C      48.925849999999997     48.917199999999994     49.035849999999989
C      48.456750000000007     48.464600000000004     47.800150000000002
C      48.116950000000003     46.983600000000003     47.392949999999999
H      48.922850000000004     49.977899999999998     49.323349999999991
H      48.862650000000002     48.164500000000004     49.744349999999997
H      48.308850000000000     49.088000000000001     46.882949999999994
H      48.441650000000003     46.944200000000002     46.255650000000003
H      48.505950000000006     46.022100000000002     47.572350000000000
H      47.074150000000003     46.999200000000002     47.185649999999995
