18

C      47.629499999999993     48.566054999999992     48.247500000000002
C      48.160199999999996     47.476955000000004     47.446300000000001
C      46.624000000000002     48.442554999999999     49.306699999999999
C      47.360599999999998     46.281575000000004     47.375599999999999
C      48.665600000000005     49.545755000000014     48.780700000000003
C      49.460699999999996     47.379455000000007     46.919900000000005
C      45.592300000000002     47.519655000000000     48.996600000000008
C      46.186699999999995     46.430554999999998     48.175300000000000
C      49.916699999999999     49.581555000000009     48.106000000000002
C      50.398800000000001     48.483255000000000     47.285699999999999
H      46.241199999999999     49.389155000000002     49.588400000000000
H      47.784799999999997     45.354145000000003     46.997800000000005
H      48.476599999999998     50.645854999999997     49.041800000000002
H      49.793600000000005     46.386035000000007     46.411600000000000
H      44.601300000000002     47.572154999999995     49.402300000000004
H      45.440099999999994     45.629424999999998     48.279299999999999
H      50.617899999999999     50.413055000000000     48.281700000000008
H      51.398699999999998     48.726055000000002     46.979800000000004
