18

C      47.387449999999994     47.548849999999987     47.628149999999984
C      48.778549999999996     48.097949999999990     47.800149999999988
C      46.759250000000009     46.622849999999993     48.677349999999990
C      49.313749999999999     47.709649999999989     49.054949999999991
C      46.460549999999998     47.856449999999988     46.592649999999992
C      49.131650000000008     49.040249999999993     46.676849999999988
C      47.639650000000003     46.150349999999996     49.766649999999998
C      48.789550000000006     46.682549999999999     49.999150000000000
C      46.735050000000001     49.032350000000001     45.776649999999989
C      48.161349999999999     49.566849999999995     45.887749999999997
H      45.870350000000002     46.091450000000002     48.406549999999996
H      50.521349999999998     48.308649999999993     49.120449999999991
H      45.478650000000002     47.537149999999990     46.787250000000000
H      50.074050000000000     49.456150000000001     47.050749999999994
H      47.301550000000006     45.302450000000000     50.606349999999992
H      49.156649999999999     46.301150000000000     50.841650000000001
H      45.922350000000009     49.415849999999999     45.158349999999999
H      48.220050000000001     50.697550000000000     45.456949999999992
