18

C      48.681949999999993     47.594949999999997     48.853749999999991
C      48.058050000000001     48.212749999999993     47.517349999999993
C      49.693750000000009     48.553249999999998     49.486949999999993
C      48.645350000000001     49.163850000000004     46.639250000000004
C      48.512650000000001     46.250849999999993     49.284449999999993
C      46.690150000000003     48.000549999999997     47.185350000000000
C      49.991550000000004     49.725349999999999     48.690349999999995
C      49.613149999999990     49.934850000000004     47.309049999999999
C      47.020249999999997     46.073050000000002     48.814049999999995
C      46.154949999999999     46.886949999999992     47.880749999999992
H      50.129249999999999     48.316349999999993     50.352649999999997
H      48.513649999999998     49.579149999999991     45.647350000000003
H      49.249549999999999     45.723250000000000     49.844650000000001
H      46.234450000000002     48.680749999999996     46.332149999999999
H      50.903149999999997     50.396349999999991     48.909649999999999
H      50.124549999999999     50.791350000000001     46.854249999999993
H      46.594749999999998     45.208649999999999     49.422049999999999
H      45.096850000000003     46.571649999999998     47.880150000000000
