18

C      48.418849999999992     47.778399999999984     47.185294999999996
C      47.281350000000003     47.807099999999991     48.106245000000001
C      49.418950000000009     46.669499999999999     47.353355000000008
C      47.137550000000005     46.989499999999992     49.221535000000003
C      48.850150000000014     49.090599999999995     46.709685000000007
C      46.459350000000001     49.121200000000002     48.145675000000011
C      49.177350000000004     45.583299999999994     48.290145000000010
C      48.068950000000001     45.874499999999998     49.172735000000003
C      48.183250000000001     50.354500000000002     47.053255000000007
C      47.033349999999999     50.269899999999993     47.847194999999999
H      50.513750000000002     46.769899999999993     46.779165000000006
H      46.211449999999999     46.980800000000002     49.819065000000009
H      49.784450000000007     49.022899999999993     45.993645000000001
H      45.486249999999998     49.314499999999995     48.512655000000009
H      49.916950000000000     44.783900000000003     48.218815000000006
H      48.017550000000000     45.208299999999994     50.006354999999999
H      48.884650000000008     51.136600000000001     46.691875000000010
H      46.561949999999996     51.216099999999997     48.076675000000009
