110

C      43.671549999999996     50.665849999999992     51.247779999999999
C      44.563649999999996     50.013150000000003     52.101879999999994
C      46.726250000000007     46.203250000000004     47.563479999999998
C      45.921849999999992     47.357250000000001     48.246780000000001
C      43.572850000000003     50.402749999999997     49.747079999999997
C      45.308149999999998     48.939650000000000     51.628979999999999
C      44.799149999999997     49.385649999999998     47.711479999999995
C      45.788950000000000     47.459550000000000     49.676379999999995
C      44.582049999999995     49.648049999999998     49.159580000000005
C      45.273750000000007     48.703150000000001     50.202979999999997
C      42.911150000000006     51.828849999999996     51.798879999999997
C      43.218750000000000     52.572750000000006     53.076380000000000
C      44.244950000000003     51.812549999999995     54.021680000000003
C      44.728449999999995     50.587750000000000     53.369879999999995
C      45.502250000000004     48.328150000000001     47.217079999999996
C      46.824950000000001     44.960249999999995     46.659080000000003
C      47.052250000000001     45.003149999999998     48.109179999999995
C      41.764350000000007     52.547050000000006     51.082880000000003
C      40.765850000000000     53.470549999999996     51.914879999999997
C      42.487650000000002     53.554449999999996     53.815479999999994
C      43.819850000000002     53.619250000000001     49.372680000000003
C      42.597250000000003     52.893750000000004     49.656080000000003
C      44.739350000000002     52.108349999999994     55.333681000000006
C      42.757249999999999     54.256650000000000     49.033379999999994
C      40.357250000000008     52.138550000000002     51.112080000000006
C      45.306150000000002     53.786149999999999     49.484480000000005
C      45.435850000000002     53.340849999999996     51.101179999999999
C      52.939450000000008     47.795150000000000     43.242180000000005
C      51.500050000000002     47.596449999999997     43.716880000000003
C      52.187150000000003     52.417849999999994     42.207579999999993
C      53.631450000000001     49.031250000000000     43.119680000000002
C      50.894750000000002     48.859150000000000     43.706280000000007
C      53.339549999999988     51.604350000000004     42.369180000000000
C      51.051249999999996     51.629049999999999     42.915679999999995
C      52.935850000000002     50.302550000000004     42.972080000000005
C      51.442949999999996     50.232849999999999     43.197980000000001
C      53.672149999999988     46.498349999999995     43.137580000000000
C      53.276550000000000     45.117550000000001     43.593680000000006
C      52.042850000000001     45.284950000000002     44.506879999999995
C      51.126050000000006     46.413850000000004     44.486279999999994
C      55.156849999999991     46.564349999999997     42.982780000000005
C      55.882050000000007     45.187350000000002     42.969679999999997
C      55.553150000000002     43.990450000000003     43.401380000000003
C      54.155450000000002     43.947049999999997     43.814179999999993
C      55.682350000000000     47.701549999999997     42.367679999999993
C      54.925849999999997     48.997850000000000     42.206080000000000
C      51.745350000000002     43.949750000000002     45.231579999999994
C      50.524150000000006     44.189550000000004     46.029780000000002
C      49.436250000000001     45.089149999999997     45.840879999999999
C      49.784050000000008     46.341649999999994     45.175179999999997
C      53.694649999999996     42.735650000000000     44.641080000000002
C      52.402950000000004     42.665050000000001     45.269379999999998
C      49.710049999999995     49.041549999999994     44.580179999999999
C      48.958650000000006     47.655949999999997     45.077280000000002
C      54.604150000000004     41.615450000000003     44.778779999999998
C      51.745149999999995     52.661749999999991     40.660579999999996
C      49.928349999999995     49.861249999999998     45.639179999999996
C      51.896550000000005     53.841349999999998     42.672880000000006
C      48.072050000000004     44.284649999999999     45.919380000000004
C      49.651049999999998     52.309450000000005     42.869180000000000
C      50.365849999999995     45.393449999999994     47.113579999999999
H      45.933850000000007     48.479549999999996     52.078180000000003
H      44.378950000000003     50.059449999999998     46.936380000000000
H      46.188249999999996     46.578650000000003     50.235879999999995
H      45.359750000000005     49.916449999999998     53.825680000000006
H      45.749250000000004     48.145649999999996     46.160979999999995
H      45.783950000000004     44.584449999999997     46.457780000000000
H      47.231449999999995     44.161250000000003     48.878579999999999
H      39.781350000000003     53.871150000000007     51.572080000000000
H      42.436149999999998     53.835249999999995     54.900835000000001
H      39.269850000000005     52.328650000000003     50.971279999999993
H      43.015249999999995     50.929049999999997     49.085080000000005
H      42.557749999999999     55.283049999999996     48.875879999999995
H      41.884650000000008     52.389549999999993     48.938280000000006
H      40.203649999999996     51.152749999999990     51.557180000000002
H      45.652349999999998     54.728549999999998     49.062479999999994
H      45.914049999999989     53.108649999999990     48.938280000000006
H      46.369250000000008     52.643750000000004     51.412279999999996
H      44.364750000000001     53.151649999999997     51.366280000000003
H      45.749350000000007     54.151149999999994     51.762479999999996
H      40.624150000000000     54.901150000000008     53.558880000000002
H      54.131450000000001     51.861250000000005     41.903180000000006
H      56.730149999999995     45.565750000000001     42.605779999999996
H      56.158850000000001     43.097949999999997     43.439279999999997
H      56.645149999999987     47.839649999999999     42.116879999999995
H      50.096849999999989     43.212350000000001     46.348479999999995
H      51.638450000000006     41.921849999999999     45.408779999999993
H      48.790949999999995     49.524149999999999     44.098780000000005
H      48.289550000000006     47.649949999999997     46.092380000000006
H      48.215249999999997     47.806950000000001     44.266180000000006
H      51.804949999999991     51.650150000000004     40.359979999999993
H      52.705550000000002     52.936950000000003     40.196579999999997
H      51.036849999999987     52.895949999999999     39.841179999999994
H      51.092749999999995     49.762449999999994     45.742279999999994
H      49.717849999999999     49.178950000000000     46.698679999999996
H      49.709249999999997     51.106150000000007     45.552880000000002
H      52.048249999999996     54.450650000000003     41.639880000000005
H      51.203150000000008     53.860549999999996     43.637280000000004
H      52.639049999999997     53.975150000000006     43.474080000000001
H      47.776650000000004     43.868649999999995     45.057580000000002
H      48.290850000000006     43.043150000000004     46.405280000000005
H      49.794150000000002     52.853050000000003     42.043580000000006
H      48.751750000000001     51.617150000000002     42.757279999999994
H      49.411550000000005     52.943649999999998     43.732680000000002
H      51.163349999999994     46.112649999999995     47.106080000000006
H      50.233350000000002     44.715150000000001     47.985380000000006
N      41.237449999999995     53.936349999999997     53.305880000000002
O      45.130250000000004     51.440449999999991     56.158820000000006
O      55.237849999999995     40.716950000000004     45.094380000000001
O      55.022049999999993     49.745049999999999     41.258080000000007
