18

C      47.170850000000002     48.191752999999991     48.497649999999993
C      47.266049999999993     47.801402999999993     47.212550000000007
C      46.918350000000004     47.003452999999993     49.465350000000001
C      47.302250000000001     46.508172999999999     46.629450000000006
C      47.243549999999999     49.669093000000004     48.879350000000002
C      47.807649999999995     49.082642999999990     46.435450000000003
C      46.947450000000003     45.612712999999999     49.072950000000006
C      47.126850000000005     45.412072999999992     47.554950000000005
C      47.756649999999993     50.631712999999991     48.148449999999997
C      48.328649999999996     50.303432999999998     46.792950000000005
H      46.902950000000004     47.416052999999991     50.387550000000005
H      47.889849999999996     46.414592999999996     45.612449999999995
H      46.976349999999996     49.777912999999998     49.807050000000004
H      48.045850000000002     48.393802999999991     45.630750000000006
H      46.767650000000003     44.822452999999996     49.670649999999995
H      47.205449999999999     44.393867000000000     47.408749999999998
H      47.955050000000000     51.606133000000000     48.485349999999997
H      49.232349999999997     50.744462999999996     46.308449999999993
