18

C      48.676599999999986     47.880899999999997     48.558799999999998
C      47.837500000000006     48.478700000000003     47.476699999999994
C      48.604699999999994     47.887799999999999     50.012799999999999
C      46.606399999999994     48.990499999999997     48.183099999999996
C      49.783000000000001     47.139700000000005     47.984899999999996
C      47.823400000000007     48.387400000000000     46.088999999999999
C      47.328400000000002     48.394599999999997     50.471299999999999
C      46.390299999999996     48.941799999999986     49.579899999999995
C      49.873499999999993     46.959599999999995     46.461600000000004
C      48.974900000000005     47.525099999999995     45.679000000000002
H      49.376199999999997     47.687600000000003     50.764300000000006
H      45.909099999999995     49.627899999999997     47.367599999999996
H      50.402199999999993     46.561499999999995     48.705799999999996
H      47.062500000000000     48.561199999999999     45.260800000000003
H      47.043700000000001     48.778699999999986     51.332800000000006
H      45.429100000000005     49.338200000000001     50.036000000000001
H      50.570899999999995     46.372100000000003     45.882599999999996
H      49.023399999999995     47.313999999999993     44.667199999999994
