18

C      48.685434999999984     47.951899999999995     47.400249999999993
C      47.451614999999997     48.199900000000000     48.240650000000002
C      49.688054999999991     49.134899999999988     47.415149999999997
C      47.316292999999995     49.379499999999993     49.053249999999991
C      48.896364999999996     46.772300000000001     46.635149999999996
C      46.360984999999978     47.220699999999994     48.042249999999996
C      49.576884999999997     50.290400000000005     48.243250000000003
C      48.363064999999992     50.390100000000004     49.073549999999997
C      47.814474999999995     45.821100000000001     46.536149999999999
C      46.432685000000014     46.031099999999995     47.091949999999997
H      50.466614999999997     49.115799999999993     46.685549999999999
H      46.403685000000010     49.422699999999992     49.872050000000002
H      49.829174999999985     46.718199999999996     46.174049999999994
H      45.533385000000003     47.391000000000005     48.624250000000004
H      50.420844999999993     50.882099999999994     48.437150000000003
H      48.504864999999995     50.924199999999999     49.993650000000002
H      47.924254999999995     45.075800000000001     46.006349999999998
H      45.602085000000002     45.429299999999998     46.857149999999997
