101

C      45.724599999999995     48.454699999999988     50.257949999999994
C      47.137200000000007     48.158500000000004     50.947450000000003
C      45.779100000000000     44.013599999999997     48.152950000000004
C      47.215000000000003     43.847800000000007     48.513750000000002
C      45.147199999999998     47.456100000000006     49.416550000000001
C      47.921999999999997     46.917900000000003     50.705049999999986
C      45.383300000000006     45.549599999999998     48.062449999999998
C      48.034600000000012     45.037599999999998     48.821050000000000
C      46.067500000000010     46.346599999999995     49.115750000000006
C      47.417699999999996     45.969700000000003     49.751750000000001
C      44.845600000000005     49.601200000000006     50.399649999999994
C      45.786400000000000     50.485399999999998     51.071849999999998
C      47.097100000000012     50.376900000000006     51.674350000000004
C      47.917900000000017     49.181600000000003     51.589649999999992
C      44.862000000000009     42.966499999999996     47.766549999999995
C      45.463099999999997     41.542900000000003     47.928749999999994
C      46.788700000000006     41.237099999999998     48.187249999999992
C      47.661200000000008     42.428399999999996     48.565849999999998
C      43.531500000000008     50.155699999999996     49.711249999999993
C      42.913400000000010     51.512300000000010     50.100849999999994
C      43.930100000000010     52.199799999999996     50.776650000000004
C      45.142000000000010     51.762700000000009     51.420549999999992
C      43.086600000000004     49.093299999999999     48.814750000000004
C      43.829900000000009     47.734000000000009     48.665449999999993
C      43.119799999999998     46.984700000000004     47.683549999999997
C      43.961300000000008     45.746499999999997     47.639150000000001
C      43.382100000000008     43.230100000000007     47.646349999999998
C      43.124800000000008     44.641400000000004     47.427449999999993
C      49.151499999999999     46.543500000000009     51.517049999999998
C      49.564000000000007     47.610799999999998     52.528050000000007
C      49.382499999999993     49.136200000000002     52.126149999999996
C      49.304600000000008     44.931399999999996     47.953350000000000
C      49.208400000000012     44.058900000000008     49.322649999999996
C      49.131799999999998     42.415900000000008     49.075850000000003
C      50.528099999999995     50.096800000000002     51.904949999999999
C      49.731000000000009     49.764200000000002     53.451250000000002
C      50.333100000000002     46.282499999999999     47.906949999999995
C      51.689800000000020     46.693100000000001     48.602350000000001
C      50.351300000000009     49.981700000000004     44.959850000000003
C      48.923699999999997     50.363000000000014     44.518649999999994
C      48.937799999999996     45.718199999999996     43.775449999999992
C      50.644300000000015     48.662999999999997     45.487250000000003
C      47.933300000000017     49.309200000000004     44.192650000000000
C      50.093300000000013     46.159300000000002     44.597250000000003
C      49.822900000000004     47.664699999999996     44.826350000000005
C      48.580200000000005     47.922300000000007     43.992649999999998
C      51.425399999999996     50.997000000000000     44.698350000000005
C      50.982200000000020     52.289800000000000     44.141249999999999
C      49.640100000000018     52.718200000000010     43.876649999999998
C      48.673299999999998     51.670300000000012     43.970050000000001
C      53.188699999999997     49.188100000000006     45.778850000000006
C      52.018000000000001     53.348399999999998     44.059349999999995
C      51.969800000000021     54.745900000000006     44.443449999999999
C      53.008300000000006     53.935800000000015     44.838049999999996
C      52.725200000000001     50.522000000000006     45.309650000000005
C      52.072900000000004     48.328299999999999     45.892550000000000
C      52.318500000000000     46.855699999999999     46.145449999999997
C      51.411000000000016     45.661200000000008     45.412449999999993
C      48.777299999999997     53.787599999999998     43.624749999999992
C      52.948300000000017     46.340599999999995     47.619850000000000
H      51.367200000000011     52.960499999999996     41.894750000000002
H      47.404200000000017     51.175200000000004     52.451050000000009
H      44.726700000000008     40.727199999999996     47.602850000000004
H      47.255800000000008     40.296700000000001     48.325850000000003
H      41.940200000000004     52.018799999999999     49.716949999999997
H      45.930300000000003     52.462400000000002     51.951250000000002
H      42.093600000000009     49.252800000000008     48.248049999999992
H      41.944500000000005     47.037599999999998     47.470649999999992
H      42.489500000000007     42.589799999999997     47.704650000000001
H      42.034599999999998     44.576499999999996     46.978549999999998
H      50.217299999999994     46.950299999999999     50.998549999999994
H      49.068600000000018     45.535200000000003     51.889349999999993
H      49.487200000000016     47.611500000000007     53.504550000000009
H      50.626900000000006     47.180599999999998     52.948149999999998
H      48.845600000000005     44.342100000000002     47.026150000000001
H      49.851600000000005     44.177599999999998     50.258349999999993
H      49.698900000000009     42.094600000000000     48.205950000000001
H      49.248300000000015     41.884000000000000     49.953949999999992
H      48.971400000000003     50.242500000000007     53.801249999999982
H      50.573300000000003     49.358100000000007     54.105249999999998
H      50.349599999999995     46.714300000000009     46.906449999999992
H      49.536299999999997     46.815600000000003     48.629549999999995
H      51.889200000000002     46.106499999999997     49.609449999999995
H      51.109499999999997     47.598500000000001     49.054050000000004
H      48.939099999999996     44.681600000000003     43.354249999999993
H      46.997000000000014     49.622600000000006     43.791749999999993
H      47.574399999999997     51.957900000000009     44.106549999999999
H      51.381900000000002     55.703299999999999     44.612549999999999
H      54.033100000000005     53.689800000000005     45.001549999999995
H      53.441300000000012     46.559300000000007     45.935350000000000
H      52.117500000000021     45.560900000000004     44.509550000000004
H      51.248199999999997     44.721699999999998     45.948449999999994
H      52.586699999999993     45.150900000000007     47.793849999999992
H      54.059799999999996     46.660700000000006     47.756950000000003
H      44.793900000000008     54.007000000000005     51.186549999999997
N      48.109700000000004     46.776600000000002     43.358249999999998
O      50.958299999999994     50.804000000000002     51.018150000000006
O      44.014800000000008     53.614000000000004     50.604349999999997
O      48.051500000000004     54.624499999999998     43.855149999999995
O      52.206400000000002     53.401300000000006     42.371150000000000
O      53.837400000000002     49.945000000000007     44.853849999999994
