18

C      48.478399999999993     47.269514999999984     48.338649999999987
C      47.754999999999995     48.501973000000000     48.553249999999998
C      47.923900000000003     45.883114999999997     48.568449999999991
C      46.362899999999996     48.493141999999999     48.850649999999995
C      49.747600000000006     47.370014999999988     47.689149999999991
C      48.281599999999997     49.883274999999998     48.441049999999997
C      46.495599999999996     45.892714999999988     48.765650000000001
C      45.863399999999999     47.135414999999988     49.055749999999996
C      50.259900000000002     48.804983999999997     47.529350000000001
C      49.529200000000003     50.036475000000003     47.760849999999998
H      48.842900000000014     45.215914999999988     48.580849999999991
H      45.659700000000001     49.298605000000002     48.980849999999997
H      50.001500000000007     46.351414999999996     47.213850000000001
H      47.841300000000004     50.816785000000003     48.717350000000003
H      45.857600000000005     44.918414999999989     48.799849999999999
H      44.740499999999997     47.113115000000001     49.031450000000000
H      51.259500000000003     49.264004999999997     46.944250000000004
H      50.069100000000006     51.081585000000011     47.532850000000003
