49

C      47.581199999999995     44.159799999999990     47.523099999999992
C      48.713500000000003     43.888799999999996     48.513800000000003
C      48.259200000000014     51.618699999999997     49.731300000000005
C      49.573000000000000     51.145999999999994     49.603399999999993
C      46.833600000000004     45.289200000000001     47.795000000000002
C      49.220500000000001     44.981600000000007     49.314599999999999
C      45.797100000000007     46.983300000000000     49.321600000000004
C      50.278200000000005     49.873799999999996     49.545999999999992
C      46.940400000000004     47.951400000000000     48.522899999999993
C      49.542200000000001     47.177600000000005     49.611099999999993
C      47.176100000000005     46.485999999999997     48.496399999999994
C      48.760800000000003     46.291000000000004     48.904899999999998
C      47.881600000000013     48.998399999999997     49.168199999999999
C      49.236799999999995     48.741999999999997     49.585099999999997
C      47.304600000000001     43.265999999999998     46.353399999999993
C      48.239800000000010     42.187300000000000     46.096000000000004
C      49.015400000000007     41.811699999999995     47.270600000000002
C      49.254300000000008     42.467300000000002     48.468599999999995
C      47.355000000000004     50.477799999999995     49.144499999999994
C      47.815600000000003     53.005000000000003     49.623699999999999
C      48.713700000000010     54.036200000000001     49.490799999999993
C      50.059900000000006     53.431900000000006     49.671499999999995
C      45.299700000000001     45.418200000000006     47.310000000000002
C      45.270600000000002     44.888599999999997     45.752299999999991
C      45.894300000000001     43.413800000000002     45.534099999999995
C      50.099500000000013     41.644500000000001     49.281399999999991
C      47.287500000000001     50.829599999999999     50.758600000000001
C      50.745400000000011     52.118699999999997     49.656599999999997
H      47.932600000000001     50.201699999999995     51.487200000000001
H      50.096100000000000     44.782199999999996     49.962999999999994
H      46.481200000000001     48.228599999999993     47.635999999999996
H      50.666500000000006     46.806300000000000     50.037999999999997
H      48.158800000000006     41.478900000000003     45.223699999999994
H      49.597900000000003     40.943899999999999     47.028399999999991
H      46.588700000000003     53.186699999999995     49.866000000000000
H      48.558799999999998     55.056100000000001     49.476100000000002
H      50.850900000000003     53.969799999999999     49.393999999999991
H      44.798000000000002     46.376699999999992     47.361000000000004
H      44.763800000000003     44.628300000000003     47.912300000000002
H      45.873000000000005     45.717599999999997     44.849899999999991
H      44.190800000000003     44.719000000000001     45.729199999999992
H      46.531400000000005     43.050500000000000     44.512799999999999
H      45.109100000000005     42.580100000000002     45.764899999999997
H      46.602500000000006     51.494399999999992     51.383399999999995
H      46.544900000000005     50.796100000000003     48.557400000000001
H      51.398800000000001     49.942900000000002     49.398499999999999
H      51.809199999999997     51.887300000000003     49.689700000000002
O      50.706400000000002     40.998300000000000     49.954899999999995
O      44.719100000000005     46.577300000000001     49.485799999999998
