36

C      47.870949999999993     50.198099999999997     46.958799999999997
C      45.804449999999989     51.834399999999988     44.082900000000002
C      49.344449999999995     44.251800000000003     49.221700000000006
C      46.500749999999996     50.364699999999999     47.456200000000003
C      46.025049999999993     48.697000000000003     49.906600000000005
C      49.042149999999992     47.405000000000001     49.939699999999995
C      49.929049999999989     45.195200000000000     50.278799999999997
C      49.304049999999989     46.327200000000005     50.834300000000006
C      45.417850000000001     50.678399999999996     46.497700000000002
C      46.114849999999990     49.724699999999999     48.738300000000002
C      45.938649999999996     50.686800000000005     45.049399999999999
C      47.192250000000001     48.869699999999995     49.224300000000007
C      48.763549999999995     49.557100000000005     47.818199999999997
C      48.537849999999992     48.477599999999995     48.885700000000007
C      50.075350000000000     47.773099999999999     51.023800000000001
C      47.799049999999994     46.669699999999992     50.676200000000001
C      50.160249999999991     43.899400000000000     48.134400000000007
C      45.194449999999989     49.538300000000007     45.557099999999998
C      51.035150000000002     44.335700000000003     50.652900000000002
H      48.231150000000000     51.879599999999996     45.487800000000000
H      48.407849999999982     43.765699999999995     49.202800000000003
H      46.106949999999998     49.122799999999998     50.956200000000003
H      45.462849999999989     47.479500000000002     50.001200000000004
H      49.872749999999996     49.520099999999999     47.436399999999999
H      50.256049999999988     47.863200000000006     52.271899999999995
H      51.133550000000000     47.678500000000000     50.939500000000002
H      49.786349999999999     50.349100000000007     45.628700000000002
H      47.270849999999996     45.846999999999994     50.240900000000003
H      47.292450000000002     47.283299999999997     51.397900000000000
H      51.063049999999990     44.432299999999998     47.970500000000008
H      50.128649999999993     43.154499999999999     47.250900000000001
H      44.988849999999999     51.729799999999997     46.834200000000003
H      44.387050000000002     48.977300000000000     45.034200000000006
N      48.682249999999996     50.822900000000004     45.849300000000007
O      46.050049999999999     52.845500000000001     43.728100000000005
O      51.612949999999998     43.392899999999997     50.582799999999999
