18

C      49.825649999999996     46.782449999999983     50.401699999999991
C      46.058750000000003     47.172249999999998     46.739899999999999
C      47.252049999999997     47.365949999999991     45.902099999999997
C      47.533050000000003     46.445149999999991     50.094100000000005
C      49.826349999999991     47.054549999999999     48.973900000000000
C      46.066249999999997     46.704850000000000     48.024999999999999
C      48.456549999999993     47.796249999999993     46.615000000000002
C      47.439250000000001     46.886249999999997     48.624900000000004
C      48.675349999999995     47.352449999999997     48.011699999999998
H      49.541449999999998     49.916350000000001     45.873799999999996
H      50.738849999999999     46.801250000000003     51.066499999999998
H      45.299650000000000     47.555450000000000     46.459200000000003
H      47.107249999999993     47.727249999999991     44.933500000000002
H      46.459750000000000     46.083649999999999     50.240699999999997
H      50.925449999999998     47.393549999999998     48.818300000000001
H      45.074550000000002     46.395750000000000     48.326299999999996
N      48.612250000000003     46.393449999999994     50.988000000000000
S      50.056849999999997     48.519249999999992     45.747900000000001
