18

C      47.474400000000003     47.614799999999988     47.808699999999995
C      48.652999999999999     48.399999999999999     48.210899999999995
C      47.246900000000004     46.104099999999995     47.770099999999999
C      49.729800000000004     47.652999999999999     48.507999999999996
C      46.240400000000001     48.362900000000003     47.399299999999997
C      48.835299999999997     49.878300000000003     48.529600000000002
C      48.528200000000005     45.465799999999994     47.961100000000002
C      49.725900000000003     46.218700000000005     48.341999999999999
C      46.544699999999999     49.816800000000008     47.350300000000004
C      47.692000000000000     50.527999999999999     47.958700000000007
H      46.389600000000009     45.541100000000007     47.989500000000007
H      50.644799999999996     48.106400000000001     49.030699999999996
H      45.355200000000004     48.037399999999998     47.774299999999997
H      49.747599999999998     50.210900000000002     48.760599999999997
H      48.693700000000000     44.381599999999999     48.101399999999998
H      50.267500000000005     45.683000000000000     49.125100000000003
H      45.552300000000010     50.232499999999995     46.874899999999997
H      47.618400000000001     51.618400000000001     47.773700000000005
