66

C      42.295704999999984     51.085299999999997     47.651100000000000
C      50.332104999999999     44.461900000000000     46.706099999999999
C      42.540104999999997     51.420699999999997     49.064100000000003
C      49.123405000000005     43.655799999999999     46.665200000000006
C      42.558705000000003     49.809100000000001     47.082299999999996
C      50.618504999999999     44.723399999999998     48.125099999999996
C      43.447005000000004     50.281300000000002     49.532500000000006
C      48.274505000000005     43.597999999999999     47.998500000000000
C      49.686305000000004     46.488300000000002     49.767599999999995
C      48.662805000000006     47.553699999999999     50.020900000000005
C      43.671305000000004     47.276899999999998     47.226000000000006
C      44.692905000000010     47.044300000000000     48.420899999999996
C      43.342105000000004     48.666899999999998     47.678699999999999
C      49.438805000000002     45.294200000000004     48.853299999999997
C      47.268704999999997     47.252000000000002     49.678900000000006
C      43.890405000000001     48.969400000000000     49.002400000000002
C      48.088805000000008     44.957300000000004     48.688799999999993
C      45.667605000000009     45.886200000000002     48.265800000000006
C      45.155405000000002     48.181899999999999     49.210500000000003
C      47.013005000000007     46.189100000000003     48.819499999999998
C      41.571705000000009     52.123699999999999     46.781900000000000
C      41.304605000000009     53.368799999999993     47.307499999999997
C      41.627305000000007     53.648600000000002     48.563499999999998
C      42.237504999999999     52.771200000000007     49.555100000000003
C      49.147405000000006     44.648499999999999     45.680200000000006
C      49.837204999999997     43.746000000000002     44.488599999999998
C      49.832904999999997     42.448599999999999     44.925599999999996
C      49.175004999999999     42.164600000000000     46.351099999999995
C      51.064104999999998     46.797699999999999     50.201699999999995
C      51.351505000000003     47.915399999999998     51.137300000000003
C      50.267305000000007     48.929299999999998     51.437400000000004
C      49.079305000000005     48.778800000000004     50.668399999999998
C      51.877405000000010     45.728600000000000     49.954199999999993
C      51.942104999999998     45.315899999999999     48.499000000000002
C      45.244905000000003     44.524600000000000     47.770999999999994
C      52.895404999999997     45.720900000000000     51.198100000000004
C      54.236493000000010     44.892400000000002     50.515400000000007
C      53.014705000000006     45.643700000000003     47.466600000000007
H      42.409305000000003     49.871099999999998     46.013500000000001
H      44.255504999999999     50.310499999999998     50.530800000000006
H      47.497505000000004     43.048800000000000     47.642400000000002
H      42.987605000000002     46.704700000000003     46.464999999999996
H      41.536805000000001     51.956600000000002     45.767999999999994
H      40.925804999999997     54.139499999999998     46.729599999999998
H      41.238705000000010     54.738300000000002     48.453099999999999
H      42.107505000000003     52.752600000000001     50.626200000000004
H      48.095005000000000     44.384999999999998     45.841699999999996
H      50.524205000000009     44.085799999999999     43.652300000000004
H      50.265405000000001     41.461700000000000     44.491300000000003
H      48.467005000000000     41.261699999999998     46.189900000000002
H      52.321105000000003     48.270099999999999     51.500899999999994
H      50.915405000000007     49.835900000000002     51.677600000000005
H      48.228405000000009     49.507399999999997     50.872099999999996
H      51.275905000000009     45.077100000000002     50.484900000000003
H      50.571705000000009     43.575000000000003     48.568199999999997
H      52.674905000000010     45.472200000000001     52.347699999999996
H      53.428221700000009     46.666600000000003     51.371299999999998
H      53.827244000000007     43.872000000000000     50.166300000000000
H      55.074195000000003     45.337699999999998     50.003599999999999
H      54.431775000000002     44.388300000000001     51.451100000000004
H      52.592705000000009     46.019100000000002     46.539800000000007
H      53.782285000000002     46.268400000000000     47.917399999999994
H      53.937091000000009     45.048099999999998     47.281399999999998
H      49.982905000000002     42.121900000000004     47.052000000000000
N      46.405105000000006     48.279000000000003     49.758199999999995
O      44.743605000000002     43.629400000000004     47.383100000000006
