39

C      48.308849999999993     45.809249999999999     47.712249999999997
C      47.780949999999997     46.921949999999995     47.191350000000007
C      48.053549999999994     50.187150000000003     50.627350000000014
C      49.500750000000004     45.687550000000002     48.596250000000005
C      46.704050000000002     47.725350000000006     47.926550000000013
C      49.287050000000001     49.755750000000006     49.956450000000011
C      46.785950000000000     49.492950000000008     49.806150000000009
C      48.863750000000003     48.138750000000002     49.619850000000007
C      47.333149999999996     48.208449999999999     49.362750000000013
C      46.360349999999997     47.995149999999995     50.488150000000012
C      50.318649999999998     50.476250000000007     49.221450000000011
C      49.393149999999999     49.163049999999998     51.145550000000007
C      47.695149999999998     45.814350000000005     46.223250000000000
C      48.927349999999997     45.779849999999996     45.034750000000010
C      49.600249999999996     47.098650000000006     45.219250000000009
C      48.667650000000002     47.966350000000006     46.229050000000008
C      45.452449999999999     46.800350000000009     48.441250000000004
C      49.714449999999999     46.996350000000007     49.208050000000007
C      50.893449999999994     47.185450000000003     45.936650000000007
H      46.352849999999997     48.666750000000008     47.247550000000011
H      50.857650000000000     48.070850000000007     46.705750000000002
H      48.037250000000000     51.192750000000004     51.008850000000002
H      46.164349999999999     50.294550000000001     49.305350000000011
H      45.246150000000000     47.907449999999997     50.262150000000013
H      46.797750000000001     48.039050000000003     51.470350000000003
H      51.339450000000006     50.632450000000006     49.677950000000003
H      50.018349999999991     51.207149999999999     48.773350000000001
H      50.449849999999991     49.225149999999999     51.932150000000000
H      46.747049999999994     46.111950000000007     45.755050000000004
H      48.215550000000000     45.753850000000000     44.190850000000005
H      49.451450000000001     44.891149999999996     45.395950000000006
H      49.713649999999994     47.394250000000000     44.067850000000000
H      48.119250000000001     48.807850000000002     45.758350000000000
H      49.510150000000003     48.539450000000002     46.734450000000002
H      50.134650000000001     44.792850000000001     48.780750000000005
H      50.608449999999998     47.273650000000004     49.720350000000003
H      51.432250000000003     46.300750000000008     46.502950000000006
H      51.393350000000005     47.154650000000004     44.941450000000010
O      44.567749999999997     46.189149999999998     48.693350000000002
