18

C      48.403959499999992     47.794299999999993     48.494999999999997
C      47.358159499999999     48.349200000000003     47.413300000000007
C      49.537859499999996     47.007899999999999     47.950800000000001
C      47.641759499999992     48.027300000000004     45.991300000000003
C      48.518759499999987     48.099499999999999     49.776600000000002
C      46.291859499999987     49.055100000000003     48.094800000000006
C      49.439359499999995     46.665100000000002     46.577600000000004
C      48.545959499999995     47.003300000000003     45.538800000000002
C      47.408859499999991     48.765200000000000     50.460700000000010
C      46.442259499999992     49.481800000000000     49.492600000000010
H      48.727859499999994     46.698300000000003     44.513900000000007
H      50.510840500000000     46.624499999999998     48.506000000000007
H      47.150659499999989     48.527999999999999     45.251100000000001
H      49.447459499999994     47.758299999999998     50.322900000000004
H      45.489159500000000     49.647399999999998     47.738100000000003
H      50.064459499999998     45.947200000000002     46.063800000000008
H      47.339459499999990     49.205400000000004     51.486099999999993
H      45.491159499999995     50.052799999999998     49.903999999999996
