18

C      47.553199999999990     47.911199999999987     48.669899999999998
C      47.489400000000003     47.002600000000001     47.615299999999998
C      48.592799999999997     48.133200000000002     49.789700000000003
C      48.503900000000002     45.970199999999991     47.750400000000006
C      47.019599999999997     49.222899999999996     48.365400000000001
C      46.770499999999998     47.382599999999996     46.490100000000005
C      49.541700000000006     47.098599999999990     49.776000000000003
C      49.409300000000002     45.858300000000000     48.865600000000008
C      46.586200000000005     49.844700000000003     47.148500000000006
C      46.178500000000000     48.682400000000001     46.318099999999994
H      48.696700000000007     49.043099999999995     50.472799999999999
H      48.445899999999995     45.146099999999990     47.056500000000007
H      47.108000000000004     50.120999999999995     49.039400000000008
H      46.620900000000006     46.380299999999991     45.972900000000003
H      50.138300000000001     47.261600000000001     50.680200000000006
H      49.958600000000004     45.057400000000001     49.109800000000000
H      46.363100000000003     50.942599999999999     47.062500000000007
H      45.861699999999999     49.263199999999998     45.319799999999994
