18

C      47.837024999999990     47.717399999999998     47.129599999999996
C      47.899425000000001     47.983100000000000     48.506200000000000
C      48.948925000000003     46.818900000000006     46.616199999999999
C      49.006825000000006     47.492700000000006     49.401100000000007
C      46.637625000000000     48.095800000000004     46.253599999999999
C      46.835825000000000     48.944499999999998     48.926800000000007
C      49.912025000000000     46.335900000000002     47.428999999999995
C      49.982124999999996     46.623300000000008     48.951299999999996
C      45.848224999999999     49.178500000000007     46.585699999999996
C      45.991124999999997     49.591000000000001     47.907800000000002
H      48.993625000000002     46.506500000000010     45.636500000000005
H      48.950424999999996     47.714999999999996     50.613700000000001
H      46.492424999999997     47.455000000000005     45.386299999999999
H      46.888324999999995     49.463799999999999     49.779599999999995
H      50.437924999999993     45.496900000000004     47.121599999999994
H      51.015524999999997     46.162799999999997     49.495500000000000
H      44.984475000000003     49.469400000000000     45.775799999999997
H      45.282825000000003     50.503099999999996     48.448799999999999
