86

C      50.937139999999999     48.086249999999993     47.246949999999991
C      52.383339999999997     48.439850000000000     47.118350000000000
C      54.891640000000002     49.860850000000006     51.021649999999994
C      50.575940000000003     48.017749999999999     48.698050000000009
C      53.094040000000000     48.966850000000001     48.272950000000009
C      50.932639999999999     47.869450000000001     51.099150000000002
C      53.827739999999999     49.041849999999990     50.752450000000003
C      51.385940000000005     48.563750000000006     49.925650000000005
C      52.810639999999999     48.646549999999998     49.617850000000004
C      50.220440000000004     47.626750000000001     46.000750000000004
C      51.362740000000002     47.867750000000001     45.168750000000003
C      52.519939999999998     47.051549999999999     44.731450000000002
C      52.730840000000008     48.526249999999997     45.627850000000002
C      47.651740000000004     48.035150000000002     46.021349999999998
C      48.999240000000000     48.061850000000000     45.311149999999998
C      49.616040000000005     49.055949999999989     44.331150000000001
C      50.879640000000002     48.440849999999990     43.855449999999998
C      47.266740000000006     47.334150000000001     47.606549999999999
C      49.502140000000004     47.041150000000002     49.222349999999992
C      48.384840000000004     46.568950000000001     48.308550000000004
C      51.687040000000003     47.268450000000001     52.305550000000011
C      50.860540000000000     48.689149999999998     52.424250000000001
C      54.442039999999999     49.151249999999997     52.251550000000009
C      55.737040000000000     50.845349999999996     50.358550000000008
C      49.640740000000001     47.236950000000000     50.795150000000007
C      48.697040000000001     50.350649999999995     44.034849999999999
C      43.700740000000003     49.273049999999991     47.639150000000001
C      44.595000000000006     46.954749999999997     47.151049999999998
C      46.270640000000000     49.546749999999996     47.715249999999997
C      47.438140000000004     48.806450000000005     47.448050000000002
C      44.954780000000007     50.003849999999993     47.096049999999998
C      44.909580000000005     45.632550000000002     47.145450000000004
C      46.799340000000001     52.001449999999998     48.187449999999998
C      45.050220000000003     44.337150000000001     46.973150000000004
C      45.935030000000005     50.867449999999998     47.856150000000000
C      46.035140000000006     46.495950000000001     47.387750000000004
C      42.483409999999999     50.275050000000000     47.439849999999993
C      43.477499999999999     47.917149999999999     47.410449999999997
C      41.239690000000003     49.644449999999999     47.174750000000003
C      41.005500000000005     48.207650000000001     47.200850000000003
C      44.858120000000007     50.586849999999991     45.764450000000004
C      43.804670000000002     51.990649999999995     46.028649999999999
C      42.914730000000006     51.590849999999996     47.210149999999999
C      44.048060000000000     43.390650000000001     46.461150000000004
C      41.592670000000005     52.662249999999993     47.256050000000002
C      39.787470000000006     50.290149999999990     46.996749999999999
C      42.146230000000003     47.363149999999997     47.418750000000003
H      54.236040000000010     49.164449999999995     48.109949999999998
H      53.450040000000008     49.151750000000000     45.114850000000004
H      51.559339999999999     48.906250000000000     42.978549999999998
H      48.818440000000002     45.986849999999997     47.559049999999999
H      47.554340000000003     45.675249999999998     48.913650000000004
H      52.701039999999999     47.353249999999996     51.987749999999998
H      51.419440000000002     46.392550000000000     52.969650000000001
H      55.254240000000003     48.493449999999989     52.635150000000003
H      53.613040000000005     49.546050000000001     52.948650000000001
H      56.838839999999998     51.112749999999998     50.726950000000002
H      55.790240000000004     50.738650000000000     49.277549999999991
H      55.362540000000003     51.787849999999999     50.453350000000000
H      49.072740000000003     48.024149999999999     51.116950000000003
H      46.654740000000004     48.253349999999990     45.526150000000001
H      49.386540000000004     46.539549999999998     51.430049999999994
H      49.085640000000005     51.324750000000002     44.100749999999998
H      48.042240000000000     50.110749999999996     43.222149999999999
H      48.277239999999999     50.174549999999989     44.968249999999998
H      48.346240000000002     49.107749999999996     47.491750000000003
H      44.417940000000002     42.390549999999998     46.204750000000004
H      46.229740000000000     44.410550000000001     47.266549999999995
H      44.862470000000002     49.790549999999989     44.967050000000000
H      46.162240000000004     50.922850000000004     45.486449999999998
H      43.153030000000001     52.259650000000001     45.176050000000004
H      44.605090000000004     52.662349999999996     46.190449999999998
H      43.338340000000002     52.059149999999995     48.229849999999999
H      43.085790000000003     43.833349999999996     46.894050000000000
H      43.951620000000005     43.435549999999999     45.326450000000001
H      41.088570000000004     52.872350000000004     48.326250000000002
H      40.772760000000005     52.603149999999992     46.552050000000001
H      41.936700000000002     53.609450000000002     46.929650000000002
H      40.206230000000005     51.303449999999991     46.824150000000003
H      39.161160000000002     49.579450000000001     46.329050000000002
H      39.195620000000005     51.043149999999997     47.627250000000004
H      40.112940000000002     47.793749999999996     46.999450000000003
H      41.926190000000005     46.226050000000001     47.367350000000002
O      49.970040000000004     49.283949999999997     53.021450000000002
O      53.003840000000004     46.413550000000001     43.877050000000004
O      47.808240000000005     52.436050000000002     48.420150000000000
