11

C      47.595349999999996     48.890200000000000     48.364099999999993
C      46.540250000000000     49.528599999999997     49.337799999999994
C      47.204250000000002     48.087500000000006     47.211199999999998
C      48.405349999999999     47.437700000000007     46.655099999999997
C      49.319450000000003     47.840699999999998     47.606299999999997
C      49.057249999999996     48.775900000000007     48.712399999999995
H      46.103750000000005     47.681200000000004     47.266500000000001
H      48.385149999999996     46.471400000000003     45.888900000000000
H      50.303849999999997     47.430900000000008     47.218299999999999
H      49.670850000000002     49.179299999999998     49.487000000000002
O      45.696150000000003     49.445900000000009     50.111100000000000
