18

C      48.699694999999991     47.549249999999994     47.776949999999985
C      47.481195000000000     48.429349999999999     47.971850000000003
C      49.779195000000001     47.857349999999997     48.681449999999998
C      47.491295000000001     49.437049999999999     48.995149999999995
C      49.058294999999994     46.431449999999998     46.898849999999996
C      46.277495000000002     48.247550000000004     47.222549999999998
C      49.737195000000007     48.750650000000000     49.846049999999991
C      48.600495000000002     49.618349999999992     49.924549999999996
C      47.834494999999997     46.359349999999999     46.137349999999998
C      46.532094999999998     47.004249999999999     46.449449999999999
H      50.612794999999998     47.168849999999999     48.400850000000005
H      46.592795000000002     50.042850000000001     48.970950000000002
H      49.999994999999998     45.940849999999998     46.779849999999996
H      45.387205000000002     48.810549999999992     47.225849999999994
H      50.463495000000002     48.992550000000008     50.512250000000009
H      48.447395000000000     50.490449999999996     50.490150000000000
H      48.100594999999998     45.509550000000004     45.487749999999991
H      45.487895000000002     46.853650000000002     46.123750000000001
