36

C      48.631249999999994     48.930914999999992     48.351999999999997
C      47.275549999999996     48.257914999999997     48.551000000000002
C      44.402649999999994     50.133314999999996     46.829400000000000
C      44.379149999999996     51.400567000000009     45.985100000000003
C      48.778149999999997     50.235815000000002     47.806699999999999
C      46.000050000000002     48.475614999999991     47.842000000000006
C      46.630849999999995     50.694014999999993     46.288400000000003
C      45.803950000000000     51.545906000000002     45.502000000000002
C      48.023749999999993     50.937751000000006     46.777500000000003
C      45.713650000000001     49.602615000000000     46.951400000000000
C      49.678950000000000     48.202815000000001     49.162200000000013
C      49.011749999999992     46.972915000000000     49.578400000000002
C      47.704750000000004     46.909414999999996     49.034199999999998
C      49.670649999999995     44.756715000000000     49.809400000000011
C      50.960949999999997     50.365414999999999     49.417700000000011
C      51.057149999999993     48.881914999999992     49.180800000000005
C      44.882750000000001     47.551014999999992     48.267300000000006
C      52.418849999999992     50.644615000000002     49.916100000000000
C      49.892349999999993     46.012014999999991     50.372700000000002
H      50.034049999999993     51.776105000000001     47.493800000000000
H      43.050349999999995     52.039755000000000     44.809100000000001
H      43.603949999999998     49.738415000000003     47.393599999999999
H      48.257149999999996     52.089985000000006     46.847000000000001
H      46.132049999999992     52.171585000000007     44.678600000000003
H      46.934550000000002     46.015715000000000     49.137200000000000
H      50.316449999999989     50.284814999999995     50.381199999999993
H      51.534750000000003     48.754514999999998     48.251600000000003
H      51.681250000000006     48.403814999999994     49.949000000000005
H      52.987449999999995     50.070814999999996     49.219900000000010
H      52.765249999999995     51.557301000000010     49.543500000000009
H      52.843249999999998     50.524715000000000     50.923900000000003
H      50.458150000000003     46.272215000000003     51.321399999999997
N      49.942549999999997     51.011993000000004     48.360700000000008
O      44.455550000000002     46.750014999999991     47.656700000000001
O      49.533450000000002     43.828414999999993     49.241600000000005
O      43.012550000000005     52.008945000000011     45.828200000000002
