6

C      47.176499999999990     48.212299999999985     47.764589999999998
C      48.362299999999998     47.881499999999996     48.469330000000006
H      48.400300000000009     47.030999999999999     48.911420000000000
H      46.761699999999998     47.370899999999999     47.609130000000000
H      47.222999999999992     48.969000000000001     47.088580000000000
H      49.238300000000002     48.411600000000000     48.642220000000002
