18

C      48.604199999999992     47.857544999999988     48.079699999999995
C      47.383100000000006     48.582912000000007     48.012900000000002
C      49.255400000000002     47.205644999999990     47.005099999999999
C      46.812800000000003     48.573881999999998     46.766300000000001
C      49.142599999999995     47.657844999999995     49.346999999999994
C      46.737900000000003     48.969380999999998     49.245499999999993
C      48.606600000000007     47.265744999999995     45.684799999999996
C      47.413999999999994     47.974144999999993     45.579499999999996
C      48.653299999999994     48.180044999999993     50.518299999999996
C      47.377900000000004     48.849781999999990     50.543199999999999
H      50.143499999999996     46.575244999999995     47.260399999999990
H      45.889900000000004     49.172832000000000     46.631500000000003
H      50.153900000000000     47.084044999999989     49.553100000000001
H      45.846100000000000     49.424755000000005     49.298299999999998
H      48.955800000000004     46.745344999999986     44.812299999999993
H      47.155200000000001     48.027044999999987     44.533799999999999
H      49.268499999999996     48.138944999999993     51.440600000000003
H      46.935899999999997     49.172817000000009     51.466200000000001
