18

C      48.277899999999988     48.162449999999993     49.005899999999997
C      47.967600000000004     47.939949999999996     47.493300000000005
C      48.315299999999993     46.682649999999995     49.524100000000004
C      47.915199999999999     46.674449999999993     46.742699999999999
C      48.536199999999994     49.525850000000005     49.557699999999997
C      47.853499999999997     49.118750000000006     46.546199999999999
C      48.204499999999996     45.502750000000006     48.727000000000004
C      47.928399999999996     45.388549999999995     47.311400000000006
C      48.236199999999997     50.593649999999997     48.528999999999996
C      47.749899999999997     50.385749999999987     47.209500000000006
H      48.637699999999995     46.744649999999993     50.582300000000004
H      48.003799999999998     46.709050000000005     45.654200000000003
H      48.748699999999999     50.001649999999998     50.522899999999993
H      47.680999999999997     49.071749999999994     45.417699999999996
H      48.251400000000004     44.515950000000004     49.354799999999997
H      47.885000000000005     44.463750000000005     46.795299999999997
H      48.326899999999995     51.536249999999995     48.647800000000004
H      47.251300000000001     51.275250000000000     46.477699999999999
