5

C      48.088549999999998     48.036399999999993     47.942249999999987
H      48.856749999999998     48.364800000000002     48.838049999999996
H      48.721650000000004     47.273600000000002     47.353949999999998
H      47.828350000000007     48.726399999999998     47.161950000000004
H      47.143250000000002     47.400999999999996     48.212850000000003
