18

C      48.491300000000003     47.558499999999988     48.036649999999995
C      47.488000000000000     48.655799999999999     48.171050000000001
C      48.452799999999996     46.179899999999996     48.455150000000010
C      49.742800000000003     47.893999999999991     47.260950000000001
C      46.306700000000006     49.086699999999993     48.950049999999997
C      47.525400000000005     49.619399999999999     47.042949999999998
C      49.808199999999999     45.745299999999993     47.979850000000006
C      50.608000000000004     46.734999999999999     47.308150000000005
C      45.440600000000003     49.916200000000003     48.295549999999999
C      46.199300000000008     50.170599999999993     47.006850000000000
H      47.751500000000007     45.830399999999997     49.178350000000002
H      49.987499999999997     48.968400000000003     46.916249999999998
H      45.904100000000000     48.472800000000007     49.724449999999997
H      48.262900000000002     49.703499999999991     46.358049999999999
H      50.503700000000009     45.198899999999995     48.399949999999997
H      51.694900000000004     46.481599999999993     46.925550000000001
H      44.305099999999996     50.012299999999996     48.332650000000001
H      45.851600000000005     50.801100000000005     46.275550000000003
