18

C      48.612249999999996     47.621649999999988     47.435650000000003
C      47.413049999999998     47.924849999999999     48.266050000000007
C      48.771749999999997     48.179449999999996     46.079550000000012
C      46.484650000000002     48.861550000000001     47.699250000000006
C      49.646649999999994     46.801949999999998     48.109450000000010
C      47.382149999999996     47.597450000000002     49.713250000000002
C      47.762349999999998     49.268750000000004     45.637450000000001
C      46.698449999999994     49.529649999999997     46.423950000000005
C      49.658249999999995     46.415250000000007     49.307350000000000
C      48.410449999999997     46.779750000000000     50.152750000000012
H      49.766049999999993     47.863949999999996     45.600650000000002
H      45.569350000000000     49.150650000000006     48.083850000000012
H      50.368750000000006     46.264850000000003     47.658250000000010
H      46.658050000000003     48.060650000000003     50.514150000000001
H      47.783749999999998     49.767050000000005     44.744450000000001
H      46.086849999999998     50.389749999999999     46.167350000000013
H      50.430650000000000     45.610250000000001     49.575250000000011
H      48.305849999999992     46.387650000000001     51.255549999999999
