18

C      48.534199999999991     48.493599999999986     47.544550000000001
C      47.456099999999999     47.506700000000002     48.059450000000005
C      48.436700000000002     49.761299999999999     46.875350000000005
C      46.065100000000001     47.750999999999998     47.709550000000007
C      50.011200000000002     48.262299999999989     47.695350000000005
C      47.937200000000004     46.310899999999997     48.869850000000007
C      47.001500000000000     49.798099999999998     46.485850000000006
C      45.909499999999994     48.981599999999993     46.929050000000004
C      50.109800000000007     47.124499999999991     48.562550000000009
C      49.243499999999997     46.115899999999989     49.237750000000005
H      49.354399999999998     50.368000000000002     46.354650000000007
H      45.268000000000001     47.137200000000000     48.032450000000004
H      50.987399999999994     48.787599999999991     47.510150000000003
H      47.177099999999996     45.711499999999994     49.200550000000007
H      46.602300000000000     50.597000000000001     45.885550000000002
H      44.865600000000001     49.323999999999991     46.708950000000009
H      51.134399999999999     47.026199999999996     48.666650000000011
H      49.576700000000002     45.402999999999999     50.114449999999998
