18

C      48.443749999999994     47.749499999999991     47.966299999999990
C      47.395850000000010     48.757599999999996     47.257899999999999
C      48.722250000000017     46.406799999999997     47.623799999999996
C      46.778750000000002     47.787700000000001     46.383800000000001
C      49.198350000000005     48.424199999999999     48.989700000000006
C      47.083150000000003     49.964500000000001     47.904799999999994
C      48.144150000000010     45.604799999999997     46.461199999999998
C      46.943150000000003     46.436499999999995     46.071399999999997
C      48.849450000000004     49.736599999999996     49.629799999999996
C      47.748950000000008     50.435099999999991     49.123500000000000
H      49.789550000000006     46.250099999999996     48.012599999999999
H      45.927650000000000     48.346899999999991     45.936099999999996
H      50.072350000000000     48.082599999999999     49.495999999999988
H      46.537550000000010     50.706499999999998     47.142800000000001
H      48.352050000000006     44.618200000000002     46.003799999999998
H      46.132350000000002     46.137299999999996     45.486300000000000
H      49.464150000000004     49.963499999999996     50.513700000000000
H      47.509850000000000     51.381799999999998     49.399300000000004
