18

C      49.035299999999992     47.498349999999995     47.945249999999987
C      48.099499999999999     48.330050000000000     48.696950000000001
C      49.166599999999995     46.103350000000006     48.078350000000000
C      46.953299999999999     47.679550000000006     49.244150000000005
C      49.628999999999998     48.123949999999994     46.888149999999996
C      48.126300000000001     49.825549999999993     48.871350000000007
C      48.270299999999999     45.512550000000005     49.016150000000010
C      47.159900000000000     46.230550000000001     49.448850000000007
C      49.167999999999999     49.491950000000003     46.719449999999995
C      48.825299999999999     50.480850000000004     47.770750000000007
H      49.773299999999999     45.477350000000001     47.453050000000005
H      46.002500000000005     48.129149999999996     49.630849999999995
H      49.997499999999995     47.571350000000010     46.056849999999997
H      47.801499999999997     50.370950000000008     49.724249999999998
H      48.532100000000000     44.386750000000006     48.988749999999996
H      46.675000000000004     45.673950000000005     50.014250000000004
H      49.285200000000003     50.254350000000002     45.985749999999996
H      48.952599999999997     51.613249999999994     47.591549999999998
