18

C      48.073699999999988     48.006749999999997     47.284949999999995
C      47.830599999999997     47.964349999999996     48.732350000000004
C      48.630199999999995     46.934750000000008     46.500950000000003
C      48.588599999999992     46.846150000000009     49.246650000000002
C      47.723700000000001     49.232149999999990     46.574649999999998
C      47.242600000000003     49.039050000000003     49.580750000000002
C      49.104000000000006     45.639449999999997     46.958350000000003
C      49.094500000000004     45.705150000000003     48.452750000000002
C      47.011299999999999     50.233050000000006     47.365550000000006
C      46.888500000000001     50.147250000000000     48.749650000000003
H      49.021399999999993     47.292749999999998     45.508050000000004
H      49.068899999999992     46.616950000000003     50.267950000000006
H      47.869999999999997     49.244450000000001     45.445150000000005
H      47.174699999999994     48.955550000000002     50.554849999999995
H      49.579799999999999     44.858850000000004     46.346550000000001
H      49.499500000000005     44.987549999999999     49.208849999999991
H      46.531900000000000     51.141149999999996     46.831350000000000
H      46.420200000000001     51.035049999999998     49.387149999999998
