18

C      47.549849999999992     48.100149999999992     48.725699999999989
C      48.341249999999995     47.707450000000001     47.372900000000008
C      47.257349999999995     49.562550000000002     48.788000000000004
C      49.084150000000001     48.570350000000005     46.558500000000002
C      47.405749999999998     47.114649999999997     49.723900000000008
C      48.492949999999993     46.344149999999999     46.973300000000002
C      47.805850000000000     50.505150000000000     47.761699999999998
C      48.587349999999994     49.949950000000001     46.756900000000009
C      48.414349999999992     46.014350000000000     49.476400000000005
C      48.713349999999998     45.545450000000002     48.220999999999997
H      46.361049999999999     49.782049999999998     49.298899999999996
H      49.638950000000001     48.010350000000003     45.566499999999998
H      46.763549999999995     46.965350000000001     50.433500000000002
H      48.645449999999990     46.057050000000004     45.969100000000005
H      47.256349999999998     51.529150000000001     47.842100000000009
H      48.984349999999999     50.451549999999997     46.086300000000001
H      48.557449999999996     45.148449999999997     50.083199999999998
H      48.902949999999997     44.470849999999999     48.021599999999999
