18

C      47.604963999999981     47.420399999999994     48.322349999999993
C      47.430811999999989     47.755300000000005     46.868250000000003
C      46.864593999999997     48.096199999999996     49.413449999999997
C      46.435499999999990     48.827700000000007     46.626350000000002
C      48.759929999999997     47.156000000000006     49.102449999999997
C      48.448369999999997     46.790700000000001     46.531450000000000
C      45.959600000000009     49.186000000000007     49.049349999999990
C      45.884799999999998     49.487800000000007     47.731450000000002
C      49.847450000000009     46.524400000000000     48.432949999999991
C      49.645160000000004     46.293500000000002     47.069150000000000
H      46.902722999999995     47.943700000000007     50.512850000000000
H      46.299899999999980     49.197699999999998     45.531149999999997
H      48.647090000000006     47.085999999999999     50.252949999999998
H      48.566969999999998     46.683000000000007     45.487150000000000
H      45.370400000000018     49.822500000000005     49.747650000000007
H      45.306500000000000     50.357900000000001     47.303249999999998
H      50.693500000000000     45.952100000000002     49.065150000000003
H      50.317489999999992     45.642099999999999     46.525050000000000
