46

C      47.666099999999993     46.380174999999994     48.473149999999997
C      46.635599999999997     45.986374999999995     47.451949999999997
C      46.817799999999998     50.612375000000000     44.890150000000006
C      45.600499999999997     49.772274999999993     44.358249999999998
C      48.760299999999987     47.184875000000005     47.981949999999998
C      46.034399999999998     46.422874999999991     45.121350000000007
C      49.561699999999988     49.128774999999990     46.526350000000008
C      46.317899999999995     47.015375000000006     46.359049999999996
C      48.532199999999996     48.190974999999995     46.813249999999996
C      47.238799999999998     48.118375000000000     46.091250000000002
C      47.323699999999995     46.004675000000006     49.980750000000000
C      46.180099999999996     45.046274999999994     49.933750000000003
C      45.710499999999996     44.153774999999996     48.842749999999995
C      45.584799999999994     44.986274999999992     47.703350000000000
C      47.688199999999995     51.767475000000005     45.082250000000002
C      49.549099999999996     49.949775000000002     45.200649999999996
C      49.046599999999998     51.275874999999999     45.239950000000007
C      46.624299999999998     49.169375000000002     45.363849999999999
C      49.599199999999996     47.264775000000000     49.145250000000004
C      48.927899999999994     47.945874999999987     50.437449999999998
C      48.054599999999994     46.708674999999999     51.108649999999997
C      48.583199999999991     49.490375000000000     49.976349999999996
C      50.691999999999993     46.046475000000001     49.292550000000006
C      45.177099999999996     47.880474999999990     47.100849999999994
H      50.538899999999998     49.447474999999997     47.191350000000000
H      46.323399999999999     44.088274999999996     50.534450000000007
H      45.171899999999994     43.138225000000006     49.018650000000008
H      44.933999999999997     44.681274999999999     46.866250000000008
H      47.730499999999992     52.861774999999994     44.859350000000006
H      49.714399999999998     52.078474999999997     45.518850000000000
H      50.417299999999997     47.994375000000005     48.690049999999999
H      49.736300000000000     48.284774999999996     50.849850000000004
H      47.438299999999998     47.045674999999989     52.092849999999999
H      48.917199999999994     46.162274999999994     51.568150000000003
H      49.126300000000001     50.111374999999995     50.614750000000001
H      47.500200000000000     49.822874999999996     50.063950000000006
H      49.201200000000000     49.916174999999996     49.131249999999994
H      50.535200000000003     45.202375000000004     48.537050000000008
H      50.723299999999995     45.477675000000005     50.226349999999996
H      51.752200000000002     46.154475000000005     49.434349999999995
H      44.247799999999998     47.663574999999994     46.459350000000001
H      45.254799999999996     48.891475000000000     47.608549999999994
H      44.952500000000001     47.216174999999993     47.881450000000001
O      44.474699999999999     49.573574999999991     43.907150000000001
O      49.796400000000006     49.311674999999994     44.231449999999995
O      45.487600000000000     46.183975000000004     44.134050000000002
