18

C      48.036899999999996     47.186799999999991     48.251849999999990
C      47.758200000000002     48.750599999999999     48.118650000000002
C      48.951000000000008     46.672300000000000     47.299149999999997
C      48.406500000000008     49.624199999999995     47.119450000000001
C      47.450600000000001     46.362699999999997     49.277850000000001
C      47.338700000000003     49.532999999999994     49.242349999999988
C      49.113600000000005     47.328399999999995     45.985749999999996
C      48.675200000000004     48.820599999999992     45.883150000000001
C      46.851500000000001     47.119499999999995     50.379449999999991
C      46.875700000000002     48.616300000000003     50.335749999999990
H      49.131299999999996     45.682299999999991     47.513750000000002
H      48.753500000000003     50.694600000000001     47.460349999999991
H      47.506100000000004     45.305399999999999     49.138849999999991
H      47.219900000000003     50.589700000000001     49.273749999999993
H      49.616000000000000     46.676099999999998     45.240549999999999
H      49.038699999999992     48.911700000000003     44.776550000000000
H      46.519500000000001     46.587699999999991     51.223450000000000
H      46.384000000000000     48.954500000000003     51.190150000000003
