18

C      47.616499999999988     48.093899999999991     48.467699999999994
C      49.081900000000005     47.696100000000001     48.171700000000001
C      46.639499999999998     47.503600000000006     49.378299999999996
C      49.432500000000005     46.442700000000002     48.726799999999997
C      47.284899999999993     49.447500000000005     47.970100000000002
C      49.714900000000000     48.313600000000008     47.009799999999998
C      47.033699999999996     46.254800000000003     49.975099999999998
C      48.503600000000006     45.931399999999996     49.779299999999992
C      47.795000000000002     50.082099999999997     46.844700000000003
C      49.194900000000004     49.530900000000003     46.489699999999999
H      45.613000000000000     47.699600000000004     49.311699999999988
H      50.387000000000000     46.067099999999996     48.245000000000005
H      46.317400000000006     49.731000000000009     48.504099999999994
H      50.357500000000002     47.758099999999999     46.430399999999992
H      46.184200000000004     45.404200000000003     50.358599999999996
H      48.423500000000004     45.033699999999996     50.326099999999997
H      47.305499999999995     50.966300000000004     46.515400000000000
H      49.765500000000003     49.895499999999998     45.641400000000004
