18

C      48.254799999999989     48.782394999999994     47.894699999999993
C      47.798600000000000     47.287394999999989     48.211500000000001
C      47.642000000000003     49.908294999999995     47.438699999999997
C      46.407400000000003     47.180994999999996     48.191100000000006
C      49.699199999999998     48.991594999999990     48.032600000000002
C      48.566600000000001     46.021694999999994     48.405900000000003
C      46.116700000000002     49.772394999999989     47.243299999999998
C      45.735499999999995     48.431094999999999     47.704999999999998
C      50.369999999999997     47.750095000000002     48.255899999999997
C      49.940999999999995     46.307294999999996     48.639499999999998
H      48.111499999999999     50.878095000000002     47.473500000000001
H      46.004899999999999     46.259895000000000     48.143400000000000
H      50.390300000000003     49.942994999999996     47.820700000000002
H      48.184099999999994     45.121904999999998     49.107799999999997
H      45.360300000000002     50.377195000000000     46.892200000000003
H      44.689500000000002     48.550195000000002     47.468899999999998
H      51.310499999999998     47.953994999999992     48.249899999999997
H      50.544300000000000     45.586675000000000     49.065899999999999
