6

C      47.879899999999992     48.240849999999995     48.696600000000004
C      48.060400000000001     47.663750000000000     47.512200000000000
H      47.413300000000007     47.749850000000002     49.437199999999997
H      48.317200000000000     49.334049999999998     48.837300000000006
H      48.586699999999993     48.168650000000007     46.562800000000003
H      47.697299999999998     46.665950000000002     47.174200000000006
