18

C      48.674449999999986     48.012850000000000     47.187849999999997
C      47.844650000000001     48.002750000000006     48.468050000000005
C      48.542850000000001     49.413150000000002     46.770049999999998
C      47.363649999999993     49.071550000000002     49.369450000000001
C      49.111049999999992     46.596550000000008     46.705449999999999
C      47.318150000000003     46.619850000000000     48.738849999999999
C      47.896050000000002     50.435450000000003     47.411850000000001
C      47.716250000000002     50.338650000000001     48.882450000000006
C      48.343149999999994     45.518250000000009     46.884050000000002
C      47.393850000000000     45.322050000000004     48.016249999999999
H      48.737150000000000     49.476850000000013     45.645849999999996
H      46.998850000000004     48.815749999999994     50.354150000000004
H      49.613050000000001     46.725750000000005     45.920450000000002
H      46.606849999999994     46.841950000000011     49.433350000000004
H      47.959050000000005     51.253650000000007     46.816450000000003
H      47.643149999999991     51.284049999999993     49.263149999999996
H      48.125850000000000     44.715950000000007     46.197350000000000
H      46.386949999999999     45.014350000000007     47.919250000000005
