47

C      48.693949999999994     46.973049999999994     47.098594999999989
C      49.805949999999996     47.169950000000000     48.232695000000000
C      45.367549999999994     47.488549999999989     48.973994999999995
C      46.745249999999999     49.311049999999994     51.410075999999997
C      47.393149999999991     47.725349999999992     47.210994999999990
C      49.328549999999993     47.230049999999991     49.543894999999999
C      44.564049999999995     48.289050000000003     50.020594999999993
C      47.748649999999998     48.346750000000000     50.950471000000000
C      46.828749999999999     47.829149999999998     48.576495000000001
C      47.903649999999999     47.647250000000000     49.609994999999991
C      49.233649999999997     47.058749999999989     45.768894999999993
C      50.818550000000002     47.209049999999991     46.116894999999992
C      51.056249999999991     47.216549999999998     47.476194999999997
C      45.042249999999996     46.627249999999989     49.960494999999987
C      45.670549999999992     50.142150000000001     51.370499000000002
C      45.038650000000004     48.968949999999992     51.386789000000000
C      49.006050000000002     47.724049999999991     44.507894999999998
C      49.809049999999999     47.700149999999994     43.287294999999993
C      51.228250000000003     47.657049999999998     43.621794999999999
C      51.665949999999995     47.454849999999993     44.910894999999989
C      46.877150000000000     48.113549999999989     45.896194999999999
C      47.533749999999998     48.011150000000001     44.620794999999994
C      48.591449999999995     45.669349999999994     46.116994999999996
C      46.234650000000002     45.505949999999999     47.527794999999990
C      44.258449999999996     48.427650000000000     52.525455000000001
C      45.014949999999999     46.204549999999998     48.296794999999996
H      50.025149999999996     47.373949999999994     50.201094999999988
H      43.785749999999993     48.783249999999995     49.466895000000001
H      48.428950000000000     47.781149999999997     51.547975000000001
H      52.051249999999996     47.088250000000002     48.133194999999994
H      45.696349999999995     46.021050000000002     50.647876000000004
H      49.250550000000004     47.723050000000001     42.445794999999997
H      51.912149999999997     47.862250000000003     42.793495000000000
H      52.759850000000000     47.378850000000000     44.792694999999988
H      45.985849999999999     48.560049999999990     45.665694999999992
H      47.041349999999994     48.745350000000002     44.010694999999991
H      46.326949999999997     45.954949999999997     46.487894999999988
H      46.079250000000002     44.383949999999999     47.504194999999989
H      43.240150000000000     47.811749999999989     52.522905000000002
H      44.856650000000002     48.060450000000003     53.463705000000004
H      43.690550000000002     49.175349999999995     53.066125000000007
H      47.156250000000000     45.141849999999991     47.813794999999992
H      44.235249999999994     46.583849999999998     47.511794999999999
H      44.614949999999993     51.616050000000001     52.844315000000002
H      45.941249999999997     51.130249999999990     53.554205000000003
N      45.496250000000003     51.151449999999997     52.407355000000003
O      48.903049999999993     44.533249999999995     45.821794999999987
