18

C      47.838899999999988     48.643199999999993     47.618749999999991
C      47.742599999999996     47.376600000000003     48.027250000000002
C      48.441400000000002     48.746000000000002     46.231349999999999
C      47.406399999999998     46.195199999999993     47.082450000000001
C      47.259100000000004     49.720099999999995     48.274749999999990
C      47.450699999999998     46.999199999999995     49.488250000000001
C      48.712499999999991     47.644200000000005     45.424849999999999
C      47.948300000000003     46.382200000000005     45.809350000000002
C      47.093600000000002     49.400600000000004     49.725850000000001
C      47.516500000000001     48.176399999999994     50.398449999999990
H      48.970500000000001     49.480699999999992     45.843950000000000
H      46.695499999999996     45.388200000000005     47.217250000000000
H      47.141100000000002     50.611799999999995     47.839449999999992
H      47.234299999999998     46.139599999999994     49.763149999999989
H      49.325900000000004     47.965299999999992     44.567050000000002
H      47.721899999999998     45.774799999999992     44.987649999999995
H      46.674099999999996     50.271999999999998     50.334449999999997
H      47.634999999999998     48.056400000000004     51.432949999999998
