59

C      48.400399999999998     49.858149999999981     49.636899999999997
C      48.064000000000007     49.722449999999988     46.869400000000006
C      49.328299999999999     48.621049999999990     43.965200000000003
C      48.707599999999999     47.627549999999992     44.759200000000000
C      47.822200000000009     51.071889999999989     47.201400000000000
C      48.819600000000008     48.444879999999991     49.572900000000004
C      49.184800000000010     47.210339999999995     45.956099999999999
C      47.126700000000000     50.430339999999994     43.981400000000001
C      48.484000000000009     48.391339999999992     46.046500000000002
C      48.144100000000009     50.125989999999994     48.256900000000002
C      48.024100000000004     50.772999999999989     50.820000000000000
C      48.065500000000000     50.022919999999992     52.074300000000001
C      48.255000000000010     48.589819999999989     51.977400000000003
C      48.877300000000005     47.921329999999990     50.910999999999994
C      46.093000000000004     47.789729999999992     43.826400000000000
C      46.338900000000010     49.225959999999993     43.415200000000006
C      48.451000000000008     51.332659999999990     43.619700000000002
C      48.579999999999998     49.930189999999989     43.654299999999999
C      47.859000000000009     52.216439999999999     50.902900000000010
C      47.505600000000001     52.898249999999983     52.230300000000000
C      47.465100000000007     52.099499999999985     53.366300000000003
C      47.982300000000009     50.785059999999994     53.327999999999996
C      45.072000000000003     48.448809999999995     43.314600000000006
C      47.319699999999997     46.841889999999992     44.083300000000001
C      49.025900000000007     48.935449999999989     42.434500000000000
C      51.612400000000008     44.187989999999992     45.941700000000004
C      50.613500000000002     45.054229999999990     45.443600000000004
C      52.246600000000001     43.140500999999993     45.049600000000005
C      50.213200000000001     45.073539999999994     44.137400000000000
C      52.203299999999999     44.284319999999994     47.290100000000002
C      50.223100000000002     46.201729999999991     46.293400000000005
C      51.689999999999998     43.122955999999995     43.698800000000006
C      50.466499999999996     43.900979999999990     43.400700000000001
C      50.791200000000003     46.418619999999990     47.621400000000001
C      51.663300000000007     45.364079999999994     48.063000000000002
H      47.737600000000000     46.290709999999990     43.124100000000006
H      47.467399999999998     52.125879999999988     46.867699999999999
H      49.053899999999999     47.905259999999991     48.662800000000004
H      46.516599999999997     50.858189999999986     44.833900000000000
H      47.889200000000002     48.104179999999992     52.831600000000002
H      49.226600000000005     46.942479999999989     51.084000000000010
H      49.198999999999998     52.008199999999995     44.149800000000006
H      48.310400000000001     51.961449999999992     42.819100000000006
H      47.510300000000001     52.722749999999991     50.082799999999999
H      47.188200000000009     53.915749999999996     52.499800000000000
H      47.270200000000003     52.486839999999994     54.323399999999999
H      48.265900000000002     50.217919999999999     54.217500000000008
H      46.900800000000004     46.142669999999988     44.865400000000001
H      49.888000000000005     48.919679999999993     41.676600000000001
H      48.058700000000002     48.451149999999991     41.848100000000002
H      42.915999999999997     48.770179999999989     43.505500000000005
H      52.437300000000008     42.084250000000004     45.556400000000004
H      49.606700000000004     45.813059999999993     43.915600000000005
H      53.084000000000003     43.757560999999988     47.462100000000000
H      51.478800000000007     42.200450000000025     43.011300000000006
H      49.857100000000003     43.698742999999993     42.536700000000003
H      50.248599999999996     46.963419999999992     48.423400000000001
H      51.962600000000009     45.541169999999994     49.127500000000005
O      43.732799999999997     48.307629999999989     44.064300000000003
