18

C      47.943349999999995     47.566399999999994     47.527949999999990
C      47.429550000000006     47.141900000000000     48.832050000000002
C      47.197250000000011     48.546399999999991     46.775950000000002
C      46.011750000000006     47.552300000000002     49.180650000000007
C      49.205650000000006     47.366500000000002     46.964149999999997
C      48.758750000000006     46.628399999999999     49.307549999999999
C      45.815850000000012     48.936599999999999     47.200350000000000
C      45.368850000000009     48.627499999999998     48.458449999999999
C      50.403050000000007     46.666800000000002     47.521549999999998
C      50.149950000000004     46.465299999999999     48.877949999999991
H      47.766450000000006     48.961299999999994     45.869050000000001
H      45.657750000000007     47.273899999999998     50.226750000000003
H      49.117150000000009     47.786600000000000     45.655250000000002
H      48.571850000000012     46.324599999999997     50.344749999999998
H      45.327050000000000     49.802300000000002     46.881650000000000
H      44.531250000000000     49.020699999999998     48.883449999999996
H      51.468750000000000     46.429400000000001     47.206649999999996
H      50.921750000000003     46.197699999999998     49.624850000000002
