18

C      48.228299999999990     48.467099999999995     47.925199999999990
C      47.291399999999996     47.360199999999999     48.142299999999999
C      48.751299999999993     49.472300000000004     48.866099999999996
C      46.970299999999995     47.203899999999997     49.627000000000002
C      48.924100000000003     48.464399999999998     46.632999999999996
C      46.827700000000000     46.618200000000002     47.024000000000001
C      48.459499999999998     49.305999999999997     50.298999999999999
C      47.427499999999995     48.233599999999996     50.556599999999996
C      48.590599999999988     47.557000000000002     45.583599999999997
C      47.339799999999997     46.689000000000000     45.605799999999995
H      49.552399999999999     50.062399999999997     48.829000000000001
H      46.787299999999995     46.180799999999998     49.870500000000000
H      49.785800000000002     49.024999999999999     46.508899999999997
H      46.214199999999998     45.906700000000001     47.395899999999997
H      48.719199999999994     50.093299999999999     51.097900000000003
H      47.594499999999996     47.732300000000002     51.455300000000001
H      49.175099999999993     47.764800000000001     44.544699999999999
H      46.930099999999996     45.912900000000000     44.846199999999996
