6

C      47.477799999999995     47.861699999999985     47.454449999999994
C      48.396500000000003     47.746799999999993     48.425049999999992
H      47.760300000000001     47.839100000000002     46.503350000000005
H      46.438900000000004     48.253200000000007     47.640049999999995
H      49.561099999999996     47.855699999999999     48.440949999999994
H      48.114100000000001     47.747399999999999     49.496649999999995
