53

C      51.344600000000000     51.125799999999998     47.031150000000004
C      53.876600000000010     46.491300000000010     44.094250000000002
C      54.877000000000010     46.678500000000000     45.122450000000001
C      51.700400000000002     48.560200000000009     47.484550000000013
C      51.962600000000009     49.439700000000002     48.831350000000000
C      41.304500000000004     48.155300000000011     46.653850000000006
C      42.370100000000008     49.180500000000009     46.322250000000011
C      50.975900000000010     48.729600000000005     49.590350000000001
C      41.772500000000008     47.491500000000002     47.889650000000003
C      43.559200000000004     48.861000000000004     47.222550000000012
C      47.103800000000007     48.780900000000003     47.907250000000005
C      43.716900000000010     49.586600000000004     46.090250000000012
C      50.113000000000014     48.389099999999999     50.567950000000010
C      43.208400000000012     47.677100000000010     48.095450000000000
C      49.549800000000005     48.231700000000004     49.369850000000000
C      45.985399999999998     47.919000000000011     47.577550000000002
C      44.586400000000012     47.812800000000010     47.465450000000004
C      48.265800000000013     48.135700000000000     48.504350000000002
C      51.847100000000012     49.921000000000006     47.565450000000013
C      51.661700000000010     46.589400000000012     45.827850000000012
C      51.469700000000003     47.145099999999999     47.067850000000007
C      51.645100000000014     45.657900000000012     46.897150000000011
C      41.250399999999999     46.397700000000000     46.968150000000009
C      43.892200000000003     50.786500000000004     45.329750000000004
C      40.990200000000002     47.155400000000000     49.309150000000002
C      50.649900000000002     44.695599999999999     46.623750000000001
C      47.172300000000007     47.303200000000004     48.167150000000007
C      52.320600000000013     46.742500000000007     44.430450000000008
C      52.409400000000005     44.689800000000005     46.162250000000000
H      40.268900000000002     48.598500000000001     46.642550000000000
H      40.728800000000007     45.574400000000011     47.320850000000007
H      41.578400000000002     46.261000000000010     45.965550000000007
H      44.752700000000004     51.524799999999999     45.700250000000011
H      43.203000000000003     51.500799999999998     45.570750000000004
H      43.817400000000006     50.525100000000009     44.258350000000007
H      40.180599999999998     48.073400000000007     49.566850000000002
H      41.002000000000010     46.037400000000005     49.624350000000007
H      41.821700000000007     47.200600000000009     50.161150000000006
H      49.887100000000004     44.437600000000003     45.731950000000012
H      50.253800000000012     43.983900000000006     47.299850000000006
H      52.766600000000011     44.812700000000007     45.126450000000006
H      51.746200000000002     47.208400000000012     43.602650000000011
H      52.812200000000004     47.787700000000001     44.802150000000012
H      53.326500000000010     44.588400000000007     46.879650000000012
H      48.401400000000010     48.726300000000009     51.856450000000009
H      51.369500000000002     51.095500000000001     45.942350000000005
H      50.241300000000010     51.132900000000006     47.601750000000010
H      51.767300000000006     52.016099999999994     47.542450000000002
H      49.925400000000010     49.016200000000012     52.909250000000000
H      54.264400000000009     46.627200000000002     46.019750000000002
H      54.267900000000012     46.244600000000005     43.090750000000000
H      55.819400000000002     46.750600000000006     44.870350000000002
N      49.536700000000010     48.944900000000004     51.849250000000012
