18

C      47.935299999999998     48.334799999999987     48.665499999999994
C      48.285800000000002     47.856299999999990     47.280600000000000
C      46.636800000000001     48.768199999999993     49.168900000000001
C      47.039999999999999     47.244000000000000     46.787399999999998
C      49.216799999999999     48.745300000000000     49.408200000000001
C      49.536600000000000     47.694899999999990     46.611199999999997
C      45.533499999999997     48.719200000000001     48.301200000000001
C      45.854400000000005     47.919799999999995     47.085999999999999
C      50.386800000000001     48.919199999999989     48.603900000000003
C      50.435899999999997     48.578600000000009     47.180999999999997
H      46.454400000000000     49.228899999999996     50.131800000000005
H      47.051300000000005     46.587999999999994     45.880000000000003
H      49.232000000000006     49.328899999999990     50.326000000000001
H      49.673200000000001     47.165499999999994     45.673999999999999
H      44.681099999999994     49.127499999999998     48.504199999999997
H      45.065199999999997     47.943799999999996     46.483300000000000
H      51.289999999999999     49.412000000000006     49.136999999999993
H      51.318900000000006     48.847000000000008     46.775500000000001
