18

C      47.617994999999993     48.199999999999989     47.306549999999994
C      47.629295000000013     47.963999999999999     48.692549999999997
C      47.349495000000005     47.076300000000003     46.291550000000001
C      47.037675000000007     46.644500000000008     48.985150000000004
C      48.196895000000012     49.439700000000002     46.853650000000002
C      48.245595000000009     48.731899999999996     49.727350000000001
C      46.949484999999996     45.756100000000004     46.593350000000001
C      46.835915000000000     45.620599999999996     47.985750000000010
C      48.713195000000013     50.457999999999998     47.920549999999992
C      48.762595000000005     50.032200000000003     49.291350000000001
H      47.372895000000000     47.463999999999999     45.304749999999999
H      47.176474999999996     46.276800000000009     50.039549999999991
H      48.157295000000005     49.659199999999998     45.829349999999998
H      48.275795000000002     48.560299999999998     50.695250000000001
H      46.817205000000001     45.056799999999996     45.677050000000001
H      46.877364999999998     44.653300000000002     48.582650000000001
H      49.182794999999999     51.346699999999998     47.441749999999999
H      49.049795000000003     50.792500000000004     50.090650000000011
