18

C      48.712299999999992     47.574799999999996     47.856499999999990
C      47.517799999999994     47.921000000000006     48.698099999999997
C      50.038199999999996     47.537400000000005     48.313800000000001
C      47.587199999999996     48.740700000000004     49.844200000000001
C      48.540199999999999     47.180999999999997     46.411000000000001
C      46.204799999999999     47.387100000000004     48.213099999999997
C      50.178500000000000     48.275500000000008     49.548000000000002
C      49.031599999999997     48.700800000000001     50.317799999999991
C      47.227399999999996     46.797399999999996     46.131100000000004
C      45.964999999999996     46.859600000000000     46.937699999999992
H      50.812799999999996     47.111699999999999     47.631999999999991
H      46.618399999999994     49.065100000000001     50.445200000000000
H      49.410299999999992     47.090900000000005     45.711900000000000
H      45.413799999999995     47.853499999999997     48.738500000000002
H      51.031700000000001     48.368699999999990     50.209899999999990
H      49.189299999999996     49.403999999999996     51.066000000000003
H      46.902599999999993     46.596000000000004     44.933999999999997
H      44.968299999999999     46.804299999999998     46.462800000000001
