50

C      48.915849999999992     45.901899999999998     49.016199999999998
C      47.292950000000005     48.031600000000005     44.968000000000004
C      46.952150000000003     50.198800000000013     48.481399999999994
C      48.295850000000002     45.731300000000005     47.611400000000003
C      48.881150000000005     47.061200000000007     49.894899999999993
C      47.608150000000002     46.861200000000004     45.668499999999995
C      48.153750000000002     49.904400000000003     49.579700000000003
C      47.107650000000000     49.259200000000000     45.842900000000000
C      46.863450000000000     51.655100000000012     48.095699999999994
C      47.899050000000003     47.110800000000005     47.044899999999998
C      48.455449999999999     48.479599999999998     49.275300000000001
C      46.973450000000000     49.297000000000004     47.328800000000001
C      47.752250000000004     48.194100000000013     47.916899999999998
C      49.272050000000000     44.552100000000003     49.578599999999994
C      49.425049999999999     43.393100000000004     48.827299999999994
C      48.840050000000005     43.239600000000003     47.585399999999993
C      48.536050000000003     44.478100000000005     46.900199999999998
C      48.271350000000005     44.341500000000003     45.439800000000005
C      47.837350000000001     45.589300000000001     44.792199999999994
C      49.172750000000001     46.992900000000006     51.309999999999988
C      49.410450000000004     45.666600000000010     51.796999999999997
C      47.065850000000005     50.459500000000013     45.030199999999994
C      47.522050000000000     45.265200000000007     43.395600000000002
C      49.666350000000001     49.206400000000009     48.972499999999997
C      50.026949999999992     45.729200000000006     53.300199999999990
C      47.503050000000002     52.863100000000010     48.797399999999996
C      45.691850000000002     50.955200000000012     48.998000000000005
H      47.161050000000003     48.300300000000007     43.950999999999993
H      48.198050000000002     50.328899999999997     50.525299999999987
H      46.630350000000000     51.800699999999999     47.096400000000003
H      49.851550000000003     42.498700000000007     49.358400000000003
H      48.713950000000004     42.377800000000001     47.030599999999993
H      48.623750000000001     43.502100000000006     44.796300000000002
H      49.187049999999992     47.872900000000008     52.053399999999996
H      49.770650000000003     46.472100000000005     54.154799999999994
H      49.632250000000006     49.773400000000002     47.901100000000000
H      50.558649999999993     48.951800000000013     49.518100000000004
H      51.128250000000001     45.739400000000010     53.320799999999991
H      49.792450000000002     44.807700000000004     53.927999999999997
H      47.411650000000002     52.794800000000002     49.773999999999987
H      46.847149999999999     53.622199999999999     48.472300000000004
H      45.470250000000000     51.283600000000007     50.035399999999996
H      44.871749999999999     51.455199999999998     48.549999999999997
H      48.567450000000001     52.806500000000007     48.417299999999997
H      48.301749999999998     47.099700000000006     42.215999999999994
H      49.721550000000001     43.567300000000010     51.434899999999999
N      49.505649999999996     44.576700000000010     51.057800000000000
O      46.967950000000002     51.442500000000003     44.587800000000001
O      47.933750000000003     44.183400000000006     43.111300000000000
S      47.414549999999998     46.301800000000007     41.845200000000006
