9

C      48.142149999999994     48.641649999999991     47.441699999999997
C      48.592849999999999     49.299749999999996     48.672299999999993
C      47.841049999999996     46.805250000000001     47.291499999999999
H      49.051050000000004     48.153849999999998     46.630600000000001
H      47.857349999999997     49.169150000000002     46.619600000000005
H      46.948949999999996     46.465350000000001     46.782399999999996
H      48.563649999999996     46.484749999999998     46.652799999999999
H      48.205150000000003     46.368549999999999     48.194800000000001
O      47.822350000000000     49.631450000000001     49.380399999999995
