18

C      48.529609999999991     47.811099999999996     47.424449999999993
C      48.037930000000003     48.395200000000010     48.776249999999990
C      48.396070000000002     48.462100000000014     46.125050000000002
C      47.612499999999997     49.788900000000005     48.563749999999985
C      48.712389999999999     46.448000000000008     47.478849999999994
C      48.061059999999998     47.634400000000007     50.036749999999984
C      47.651159999999997     49.693000000000005     46.027049999999988
C      47.167090000000002     50.326400000000007     47.246549999999999
C      48.962510000000002     45.818700000000007     48.662449999999993
C      48.707860000000004     46.289400000000008     50.052949999999996
H      48.643300000000004     47.906100000000002     45.290349999999989
H      47.457400000000000     50.571700000000007     49.339749999999995
H      48.739280000000001     45.803200000000004     46.587350000000001
H      48.054459999999999     48.107800000000005     50.931550000000001
H      47.708640000000003     50.312999999999995     45.068449999999999
H      46.718389999999999     51.242799999999995     47.150549999999996
H      49.281610000000001     44.757200000000005     48.808049999999994
H      48.966149999999999     45.588700000000003     50.897449999999992
