18

C      47.669349999999987     48.425149999999995     48.493449999999996
C      48.834649999999996     48.708849999999998     47.726650000000006
C      46.242450000000005     48.429450000000003     47.918350000000004
C      48.372550000000004     49.079149999999998     46.337850000000003
C      48.074950000000001     48.005949999999999     49.735549999999996
C      49.992149999999995     47.799849999999999     47.854950000000002
C      46.016149999999996     48.956350000000000     46.666250000000005
C      47.227249999999998     49.337649999999996     45.853350000000006
C      49.134749999999997     47.207450000000001     50.310749999999992
C      50.087350000000001     47.080550000000002     49.207150000000006
H      45.366450000000000     48.146850000000001     48.719950000000004
H      49.066550000000007     49.287450000000000     45.476450000000007
H      47.156350000000003     48.116650000000000     50.210150000000006
H      50.568950000000001     47.478049999999996     47.080250000000007
H      45.046549999999996     49.171549999999996     46.561850000000007
H      47.359949999999998     49.696550000000002     44.804350000000007
H      49.156549999999996     46.795650000000002     51.195649999999993
H      50.953450000000004     46.303449999999998     49.117849999999997
