18

C      47.423850000000002     47.201695000000001     48.205099999999987
C      48.114250000000006     48.506214999999997     48.398700000000005
C      47.582749999999997     46.153565000000000     49.244799999999998
C      49.126250000000006     48.631715000000000     49.561400000000006
C      46.377050000000004     47.170445000000001     47.099100000000007
C      47.855350000000008     49.631415000000004     47.508799999999994
C      48.629750000000008     46.315615000000008     50.240200000000002
C      49.428750000000001     47.508175000000008     50.391499999999994
C      46.335749999999997     48.108725000000007     46.063299999999998
C      47.047950000000007     49.349895000000004     46.361699999999999
H      47.013550000000002     45.257505000000009     49.350099999999998
H      49.570250000000009     49.560895000000002     49.868800000000007
H      45.714050000000007     46.321354999999997     47.137100000000004
H      48.019050000000000     50.742494999999991     47.513599999999997
H      48.756450000000008     45.390015000000005     50.807900000000004
H      50.370849999999997     47.594475000000003     50.747100000000003
H      45.629150000000003     48.321404999999999     45.192099999999996
H      46.989750000000008     50.348405000000000     45.768900000000002
