58

C      47.680049999999994     46.297999999999988     49.068149999999996
C      47.391849999999998     45.490300000000005     47.879850000000005
C      47.183050000000001     49.892600000000002     45.581750000000000
C      46.390650000000001     49.123599999999996     44.655550000000005
C      47.811950000000003     47.809799999999996     48.879949999999994
C      46.995649999999998     45.897000000000006     46.632549999999995
C      47.227850000000004     49.588300000000004     47.100949999999997
C      45.942749999999997     47.840500000000006     45.193150000000003
C      47.211250000000000     48.187399999999997     47.544049999999999
C      46.786650000000002     47.294100000000000     46.306349999999995
C      48.581049999999998     45.780000000000001     50.080749999999995
C      49.394749999999995     44.312300000000008     49.768749999999997
C      47.738950000000010     43.923400000000001     47.900549999999996
C      47.012749999999997     42.674300000000002     47.113050000000001
C      47.808150000000005     51.084000000000003     44.950850000000003
C      47.819750000000006     51.672300000000007     43.676249999999996
C      47.062049999999999     50.794399999999996     42.769250000000000
C      46.198050000000002     49.745599999999996     43.273150000000001
C      48.562849999999997     48.844300000000004     49.560450000000003
C      49.355150000000002     46.813900000000004     50.859150000000000
C      48.805149999999990     43.432500000000005     48.676850000000002
C      47.964350000000003     50.261899999999997     49.392749999999992
C      49.211049999999993     48.217200000000005     50.781149999999997
C      49.210650000000008     49.056300000000007     52.093249999999998
C      47.995650000000005     48.346900000000005     52.970650000000006
C      50.174349999999997     48.544899999999998     49.564250000000001
C      46.680650000000000     50.357699999999994     50.280450000000002
C      48.162149999999997     44.555599999999998     50.927650000000000
C      48.252949999999991     53.097700000000003     43.204149999999998
C      49.466349999999998     43.691200000000009     47.328149999999994
H      50.166950000000000     44.044399999999996     50.555449999999993
H      46.869450000000001     45.223699999999994     45.928150000000002
H      45.407150000000001     47.192099999999996     44.404049999999998
H      48.246350000000000     51.671300000000002     45.903049999999993
H      46.643250000000002     51.077299999999994     41.899550000000005
H      45.177349999999997     49.733900000000006     42.630650000000003
H      49.652849999999994     46.512300000000010     51.962850000000003
H      48.785249999999998     50.919600000000003     49.714950000000002
H      48.863550000000004     49.887000000000000     52.451750000000004
H      50.157050000000005     49.082899999999995     52.727350000000001
H      47.549349999999997     47.425500000000014     52.668549999999996
H      47.245649999999998     49.180599999999998     53.097650000000002
H      48.281249999999993     47.934899999999999     54.100449999999995
H      50.822650000000003     49.444300000000013     49.170249999999996
H      50.035449999999990     47.791500000000013     48.720849999999999
H      46.220350000000003     51.168099999999995     49.990049999999997
H      45.828249999999997     49.502499999999998     50.031649999999999
H      46.586250000000000     50.334000000000003     51.442049999999995
H      48.488650000000000     44.682500000000005     51.941249999999997
H      47.205649999999999     43.992800000000003     50.618549999999999
H      48.789849999999994     42.275599999999997     48.953850000000003
H      47.952350000000003     53.964299999999994     43.778850000000006
H      47.942749999999997     53.483200000000011     42.208349999999996
H      49.411149999999999     53.289300000000011     43.179850000000002
H      50.253750000000004     44.415700000000001     47.485450000000000
H      49.791950000000000     42.866399999999999     46.516049999999993
O      47.517150000000001     50.483900000000006     48.017650000000003
O      46.383249999999997     42.035700000000006     46.447450000000003
