5

C      48.309549999999980     48.028599999999997     48.140649999999994
H      48.634149999999991     48.461599999999997     47.183450000000001
H      48.711449999999999     48.914899999999996     48.816549999999999
H      47.288550000000001     47.795400000000001     48.326349999999998
H      48.653649999999999     47.085100000000004     48.408250000000002
