33

C      48.290599999999991     48.014249999999990     48.420069999999996
C      48.286999999999999     49.392650000000003     48.836969999999994
C      46.530299999999997     46.998549999999994     52.398370000000000
C      48.275399999999998     46.727050000000006     49.307169999999999
C      48.156999999999996     49.460250000000002     50.440770000000001
C      47.183799999999998     45.991550000000004     51.710269999999994
C      46.705500000000001     48.395049999999998     52.177170000000004
C      47.848100000000002     46.911749999999998     50.608869999999996
C      47.818899999999999     48.379649999999998     51.194469999999995
C      48.350399999999993     47.903949999999995     46.938469999999995
C      48.402599999999993     49.151150000000001     46.040869999999998
C      48.446599999999997     50.551950000000005     46.580169999999995
C      48.514699999999998     50.638249999999999     48.029470000000003
C      48.140199999999993     46.679050000000004     46.266869999999997
C      47.850499999999997     46.700150000000008     44.740520000000004
C      47.984499999999997     47.781050000000008     43.860290000000006
C      48.556200000000004     48.906450000000007     44.596609999999998
C      48.380799999999994     45.435050000000004     48.560569999999998
C      48.390199999999993     45.572950000000006     47.115669999999994
C      49.267099999999999     48.951149999999998     51.395470000000003
H      45.875399999999999     46.549250000000001     53.120869999999996
H      47.424799999999998     50.200649999999996     50.846069999999997
H      47.054699999999997     44.982650000000007     51.846769999999992
H      46.335700000000003     49.431449999999998     52.919269999999997
H      48.579200000000000     51.343050000000005     46.048969999999997
H      48.758499999999998     51.531850000000006     48.638769999999994
H      47.257799999999996     45.801749999999998     44.540779999999998
H      47.647199999999998     47.886150000000001     42.879130000000004
H      48.797700000000006     49.607650000000007     43.769610000000000
H      48.249600000000001     44.468149999999994     49.176370000000006
H      48.375900000000001     44.583449999999999     46.886970000000005
H      49.444599999999994     49.859549999999999     51.899569999999997
H      50.124600000000001     48.080650000000006     51.196569999999994
