53

C      46.606849999999987     46.679899999999989     48.341249999999988
C      47.844349999999991     48.499099999999999     49.578350000000000
C      50.031349999999996     48.633100000000013     45.003999999999991
C      47.197049999999997     46.737099999999998     46.966299999999990
C      48.788849999999996     49.378799999999998     49.189750000000004
C      49.036949999999990     47.680400000000006     45.592879999999994
C      50.735649999999993     49.268100000000004     45.967119999999994
C      48.463650000000001     47.741800000000012     46.854129999999998
C      48.536249999999995     48.349400000000003     48.137999999999991
C      45.594149999999999     45.709100000000007     48.740449999999996
C      44.599750000000000     45.356800000000007     49.821950000000001
C      45.043149999999997     46.152100000000004     50.976649999999992
C      46.778349999999996     47.418300000000016     49.586349999999996
C      45.032849999999996     44.847000000000008     47.554699999999997
C      43.996049999999997     43.979300000000009     48.113929999999996
C      43.468949999999992     44.452500000000001     49.401150000000001
C      43.128850000000000     46.044399999999996     49.655549999999991
C      45.860649999999993     44.813100000000006     46.382719999999992
C      46.774749999999997     45.918700000000001     45.927700000000002
C      47.535749999999993     45.809100000000001     44.464339999999993
C      48.556649999999991     46.929299999999998     44.327349999999996
C      49.831750000000000     50.203100000000006     49.578249999999997
C      51.437749999999994     50.557900000000004     49.616250000000008
C      46.166849999999997     47.043100000000010     50.936250000000001
C      52.523549999999986     49.890700000000010     48.736949999999993
C      49.324150000000003     51.840699999999998     49.048550000000006
C      50.876249999999999     49.972800000000007     50.865349999999992
C      46.326349999999991     48.155200000000008     51.828249999999997
H      50.123649999999998     49.067800000000005     44.021189999999990
H      51.676349999999992     49.819900000000004     45.526439999999994
H      50.541949999999986     49.028700000000015     47.046229999999994
H      44.575249999999997     46.171500000000009     52.054649999999995
H      43.478049999999996     43.199100000000001     47.630569999999992
H      42.974750000000000     43.757000000000005     50.027749999999997
H      45.624249999999996     44.065799999999996     45.680880000000002
H      47.997749999999996     44.831600000000009     44.318339999999992
H      47.035749999999993     45.867000000000004     43.487769999999998
H      48.287449999999993     47.529900000000012     43.281049999999993
H      49.369749999999996     46.429699999999997     43.694859999999991
H      51.636749999999992     51.521300000000011     49.732450000000000
H      47.173949999999991     46.186000000000007     51.332049999999995
H      53.631550000000004     49.949500000000015     48.920249999999996
H      52.441149999999993     50.143600000000006     47.602840000000000
H      52.119749999999996     48.959000000000003     48.588449999999995
H      49.566549999999992     52.800899999999999     49.903350000000003
H      48.465449999999990     51.692000000000007     48.521349999999998
H      50.091549999999998     52.230400000000003     48.312950000000001
H      47.083549999999988     49.045100000000005     51.805850000000007
H      51.073449999999994     48.999200000000016     51.361350000000002
H      50.914149999999992     50.780699999999996     51.597449999999995
H      45.320650000000001     48.616700000000009     51.936750000000004
H      46.726649999999992     47.476300000000009     52.718950000000007
O      42.368449999999996     46.938800000000001     49.916650000000004
