18

C      48.647849999999991     47.198949999999996     48.037849999999992
C      47.799850000000006     48.539349999999999     47.842950000000002
C      48.140349999999998     45.968350000000001     47.459050000000005
C      46.457949999999997     48.126549999999995     47.474650000000004
C      49.947150000000008     47.550749999999994     48.835150000000006
C      48.180450000000008     49.804549999999992     48.492450000000012
C      46.675049999999999     45.896649999999994     47.240349999999999
C      45.601550000000003     46.954449999999994     47.201250000000002
C      50.376850000000005     48.900949999999995     49.037450000000000
C      49.531949999999995     50.038250000000005     48.912849999999999
H      48.477050000000006     45.068749999999994     47.605150000000002
H      45.719750000000005     49.003950000000003     47.762750000000004
H      50.769250000000014     46.831850000000003     48.892149999999994
H      47.735650000000007     50.822049999999990     48.144749999999995
H      46.339650000000006     44.914249999999996     47.241950000000003
H      44.605649999999997     46.867149999999995     46.650050000000000
H      51.394350000000003     48.892349999999993     49.349950000000000
H      49.913049999999998     51.085750000000004     49.312750000000001
