18

C      47.438549999999985     48.481099999999998     47.504614999999994
C      48.725549999999998     48.461500000000008     48.128374999999991
C      47.398849999999996     47.536300000000004     46.374044999999995
C      49.829049999999995     47.818199999999997     47.617914999999996
C      46.168549999999996     48.923999999999999     48.344915000000000
C      48.911349999999999     48.959200000000003     49.464044999999999
C      48.547449999999998     47.187100000000008     45.604225000000000
C      49.823849999999993     47.600600000000007     46.212734999999995
C      46.368949999999998     49.206499999999998     49.577745000000000
C      47.692549999999997     49.131200000000000     50.115245000000002
H      46.475049999999996     47.213100000000004     45.725555000000000
H      50.820149999999998     47.357099999999996     47.985114999999993
H      45.179850000000002     48.845000000000006     47.826965000000001
H      49.934650000000005     49.157000000000004     50.013545000000008
H      48.435149999999993     46.438200000000002     44.785854999999998
H      50.760350000000003     47.312000000000005     45.657184999999998
H      45.638949999999994     49.561799999999998     50.239845000000003
H      47.702449999999999     49.258900000000004     51.214145000000002
