18

C      48.737399999999994     48.684949999999986     48.368599999999986
C      47.653700000000001     47.662149999999997     47.925599999999996
C      49.980400000000010     48.208150000000003     48.152899999999995
C      47.993900000000004     46.221050000000005     47.497700000000002
C      48.477499999999999     50.018749999999997     48.637800000000006
C      46.344300000000004     48.081450000000004     48.275600000000004
C      50.330600000000004     46.801850000000002     47.651500000000006
C      49.359500000000004     45.928950000000000     47.139900000000004
C      47.035400000000003     50.223450000000000     48.818400000000004
C      45.919200000000004     49.460849999999994     48.366499999999995
H      50.774900000000002     48.881550000000004     48.333199999999998
H      47.207900000000002     45.644549999999995     47.173200000000001
H      49.094699999999996     50.888149999999996     48.409299999999995
H      45.501100000000001     47.521050000000002     48.345800000000004
H      51.067599999999999     46.090350000000001     47.646300000000004
H      49.554800000000000     44.989850000000004     46.420899999999996
H      46.803699999999999     51.010149999999996     49.579100000000004
H      44.932400000000001     49.808350000000004     48.510799999999996
