62

C      49.799920000000000     45.853229999999996     51.753349999999998
C      48.675510000000003     44.917529999999999     52.363249999999994
C      43.263320000000022     46.251030000000000     48.311350000000004
C      49.272470000000006     46.692629999999994     50.730450000000005
C      44.118920000000010     44.698229999999995     46.564949999999996
C      44.515219999999992     48.395529999999994     48.385049999999993
C      47.401800000000009     45.432829999999996     51.711249999999993
C      45.799920000000007     49.350330000000000     49.040250000000000
C      45.389420000000001     46.583429999999993     49.729450000000000
C      44.218020000000017     45.719830000000002     47.526650000000004
C      44.391320000000015     46.929329999999993     48.733149999999995
C      49.476590000000009     48.183629999999994     50.052750000000003
C      46.988897000000009     48.590029999999999     49.576049999999995
C      47.728650000000009     46.562629999999999     50.777050000000003
C      46.680420000000034     47.247929999999997     49.958249999999992
C      45.934020000000004     45.033029999999997     51.692650000000000
C      44.996220000000015     45.543729999999996     50.779550000000000
C      52.545760000000008     43.280929999999998     52.945249999999987
C      51.369000000000007     44.098730000000003     52.704350000000005
C      50.237540000000003     43.546830000000000     53.488349999999997
C      48.828080000000007     43.826129999999992     53.327649999999991
C      53.738940000000007     43.702230000000000     52.442149999999998
C      41.751719999999999     46.370429999999999     48.597650000000002
C      49.990520000000004     46.815029999999993     49.376549999999995
C      51.191139999999997     45.551130000000001     52.128349999999998
C      44.902820000000027     50.518329999999992     45.240949999999998
C      45.055920000000015     51.827129999999997     44.559650000000005
C      45.563820000000014     49.111529999999988     47.342849999999999
C      44.337920000000032     51.838430000000002     43.255150000000000
C      45.289020000000015     50.485230000000001     46.732749999999996
C      45.888520000000007     52.949230000000000     45.182350000000000
C      44.264920000000018     49.818829999999991     44.130849999999995
C      43.895020000000017     50.504329999999996     43.002049999999997
C      46.639320000000033     51.085629999999995     46.806849999999997
C      46.808079500000005     52.301429999999996     46.073250000000002
H      45.035520000000020     44.700229999999991     46.048249999999996
H      43.078420000000023     44.363730000000004     46.346350000000001
H      43.540920000000007     48.792729999999992     48.173149999999993
H      45.275720000000000     50.228929999999991     49.403649999999999
H      48.132730000000002     50.307429999999997     49.925349999999995
H      45.657920000000026     44.232129999999998     52.296649999999985
H      44.103120000000018     44.963629999999995     50.746049999999997
H      50.643160000000002     42.853430000000003     53.987449999999995
H      47.940780000000004     43.492229999999992     53.843350000000001
H      41.310120000000005     46.948629999999994     47.731949999999998
H      41.428620000000016     45.360230000000001     48.305149999999998
H      41.681320000000007     46.770229999999998     49.675150000000002
H      49.609860000000005     46.528430000000000     48.443550000000002
H      51.114980000000003     46.585629999999995     49.479349999999997
H      50.479700000000008     48.760030000000000     50.363849999999999
H      51.938110000000002     46.150329999999997     51.587549999999993
H      52.491190000000003     41.995170000000002     53.160949999999985
H      46.293320000000016     48.443829999999991     46.817549999999997
H      44.269120000000008     52.743429999999989     42.643649999999994
H      44.502120000000026     51.008429999999990     47.183650000000000
H      45.906320000000022     54.004829999999998     45.044650000000004
H      44.052120000000009     48.654529999999994     44.216250000000002
H      44.008420000000008     50.104429999999994     42.012550000000005
H      47.341929000000007     50.848929999999996     47.714349999999996
H      47.536567000000005     52.946629999999999     46.398849999999996
N      48.266100000000009     49.227729999999994     49.561049999999994
O      54.689879999999995     44.248030000000000     52.184349999999995
