18

C      47.916549999999994     48.461749999999995     47.224844999999988
C      48.308650000000000     47.542349999999999     48.534734999999998
C      46.655250000000002     49.209850000000003     47.431075000000007
C      47.629750000000001     47.939550000000004     49.715795000000000
C      48.633449999999996     48.539149999999999     46.147544999999994
C      49.520949999999999     46.919650000000004     48.284475000000000
C      45.672849999999997     49.152949999999997     48.400235000000009
C      46.243450000000003     48.503850000000007     49.555205000000001
C      49.805450000000008     47.560650000000003     46.059555000000003
C      50.181849999999997     46.645750000000000     47.028715000000005
H      46.496549999999999     49.983550000000001     46.701714999999993
H      47.918650000000000     47.701350000000005     50.644095000000007
H      48.346550000000008     49.181950000000008     45.434025000000005
H      50.260649999999998     46.230450000000005     49.043785000000000
H      44.867350000000002     49.794049999999999     48.495715000000004
H      45.719949999999997     48.631549999999997     50.518695000000008
H      50.524850000000001     47.939550000000004     45.355904999999993
H      51.132649999999998     46.016449999999999     47.020325000000000
