18

C      47.665849999999992     47.056199999999997     47.935800000000000
C      47.699349999999995     48.574600000000004     48.059199999999990
C      47.213650000000001     46.443399999999997     49.171399999999991
C      47.505250000000004     49.309200000000004     49.245899999999992
C      48.055650000000000     46.655699999999996     46.552400000000006
C      48.015050000000002     49.629100000000008     47.014700000000005
C      47.005049999999997     47.132800000000003     50.444400000000002
C      47.000749999999996     48.626100000000008     50.417900000000003
C      48.469949999999997     47.600499999999997     45.585999999999999
C      48.789749999999998     48.982700000000008     45.975499999999997
H      47.514650000000003     45.429500000000004     49.248699999999999
H      47.303950000000000     50.420500000000004     49.417400000000001
H      47.852450000000005     45.828500000000005     45.830399999999997
H      48.020250000000004     50.570499999999996     47.490499999999997
H      46.672349999999994     46.529300000000006     51.354599999999991
H      46.737949999999998     49.341600000000000     51.333300000000008
H      48.983150000000009     47.296000000000006     44.645400000000009
H      49.327650000000006     49.652000000000001     45.238500000000002
