18

C      48.044999999999995     48.726149999999990     48.202649999999991
C      48.015000000000001     47.317950000000003     47.498449999999998
C      48.186100000000010     48.643350000000005     49.660950000000007
C      47.604900000000001     46.238650000000000     48.348750000000003
C      48.454200000000000     49.940249999999999     47.567650000000008
C      48.300000000000004     47.421250000000008     46.096250000000005
C      47.720200000000006     47.596650000000004     50.545450000000010
C      47.135400000000004     46.637549999999997     49.606250000000010
C      48.920100000000005     49.876849999999997     46.194850000000010
C      48.581700000000012     48.680550000000004     45.417750000000005
H      48.505500000000005     49.571050000000007     50.064349999999997
H      47.487500000000004     45.220549999999996     47.984850000000002
H      48.342900000000000     50.779450000000004     48.180650000000007
H      48.330399999999997     46.548949999999998     45.446750000000002
H      47.150600000000004     47.617350000000009     51.729649999999999
H      46.644800000000004     45.896049999999995     50.062150000000010
H      49.355199999999996     50.709949999999999     45.872350000000004
H      48.737300000000005     48.793150000000004     44.270350000000001
