60

C      50.051549999999992     46.723949999999988     49.247299999999989
C      50.544650000000011     45.368150000000000     49.777799999999999
C      47.026550000000000     48.584149999999994     49.065899999999999
C      48.234650000000002     48.802549999999997     49.944699999999997
C      50.094550000000005     49.604050000000001     45.147199999999998
C      51.128850000000007     49.947549999999993     46.130299999999998
C      47.203850000000003     48.692149999999998     47.664899999999996
C      49.744650000000000     49.165549999999996     49.649100000000004
C      48.717950000000002     49.340649999999997     45.614800000000002
C      50.934350000000002     49.450350000000000     47.571700000000000
C      48.596750000000000     49.029949999999999     47.197200000000002
C      49.681150000000002     49.087450000000004     48.081600000000002
C      45.729350000000004     48.450549999999993     49.900099999999995
C      45.535150000000002     48.323049999999995     51.272700000000000
C      46.674250000000001     49.121849999999995     51.789900000000003
C      48.082850000000001     49.086849999999998     51.301999999999992
C      50.195350000000012     49.897549999999995     43.702399999999997
C      52.431950000000001     50.827749999999995     44.260199999999998
C      51.218850000000010     50.698450000000008     43.342900000000000
C      52.323050000000002     50.678650000000005     45.638599999999997
C      44.708950000000002     47.652450000000002     48.913200000000003
C      43.885550000000002     46.910749999999993     49.464500000000001
C      43.695050000000002     46.798250000000010     50.944699999999997
C      44.464849999999998     47.545149999999992     51.891199999999998
C      44.747050000000002     47.821349999999995     47.524999999999999
C      45.954149999999998     48.533250000000010     46.893099999999997
C      46.253250000000001     48.900550000000010     45.459699999999998
C      47.454550000000005     49.466149999999999     44.875500000000002
C      50.300750000000001     48.077449999999999     50.243399999999994
C      45.131350000000005     49.334649999999996     44.502899999999997
C      45.312850000000005     50.049549999999996     42.966999999999999
C      46.708950000000002     47.386749999999992     45.102199999999996
C      44.247550000000004     46.848150000000004     53.337699999999998
H      49.071650000000005     46.544449999999998     49.205900000000000
H      50.135150000000003     46.618049999999997     48.255400000000002
H      49.755350000000000     50.293350000000004     49.936300000000003
H      51.785150000000009     49.803550000000001     48.210099999999997
H      46.490850000000002     49.596350000000001     52.933899999999994
H      49.511150000000001     49.595650000000006     42.939700000000002
H      53.073350000000012     51.462450000000004     43.693100000000001
H      51.772250000000007     51.358550000000008     42.317999999999998
H      53.165250000000000     51.353650000000002     46.103099999999998
H      43.692350000000005     46.202449999999999     48.683400000000006
H      42.834750000000000     46.081450000000004     51.329599999999999
H      44.409750000000003     47.181749999999994     46.788899999999998
H      47.500350000000005     49.644250000000000     43.782800000000002
H      49.697850000000003     48.030050000000003     51.274299999999997
H      51.186650000000007     48.735649999999993     50.251999999999995
H      44.424150000000004     50.243150000000000     45.119999999999997
H      44.939950000000003     48.283450000000002     44.107199999999999
H      46.155650000000001     50.793149999999997     42.882199999999997
H      44.326149999999998     50.606750000000005     42.768400000000000
H      45.346350000000001     49.331750000000000     42.139899999999997
H      47.157850000000003     47.181550000000001     44.009000000000000
H      45.692950000000003     46.615250000000003     45.233800000000002
H      47.557050000000004     46.750050000000002     45.452300000000001
H      43.967250000000000     47.706050000000005     53.860100000000003
H      45.254049999999999     46.234650000000002     53.747199999999992
H      43.512150000000005     45.808750000000003     53.731300000000005
O      50.634750000000004     44.537549999999996     50.532899999999998
