18

C      48.214149999999989     48.167650000000002     47.568049999999999
C      47.170049999999996     47.820149999999998     48.706450000000004
C      47.918149999999990     49.311450000000008     46.711450000000013
C      46.058050000000001     48.691550000000007     49.056950000000001
C      49.439349999999997     47.468150000000009     47.452950000000001
C      47.445249999999994     46.707149999999999     49.484750000000005
C      46.787649999999992     50.082049999999995     46.869550000000004
C      46.124249999999996     49.858649999999997     48.208150000000003
C      49.724150000000002     46.272149999999996     48.366650000000007
C      48.744049999999994     45.987350000000006     49.238550000000018
H      48.534050000000001     49.263450000000006     45.700350000000000
H      45.427450000000000     48.811050000000009     49.775550000000010
H      49.986349999999995     47.571349999999995     46.392750000000007
H      46.721150000000002     46.414349999999999     50.299650000000000
H      46.653749999999995     50.976749999999996     46.348450000000000
H      45.531649999999992     50.555450000000008     48.732450000000014
H      50.572550000000000     45.975750000000005     47.608750000000015
H      48.721649999999990     45.023250000000004     49.947850000000003
