51

C      47.449099999999987     46.540349999999997     49.777499999999989
C      46.442099999999996     45.460549999999998     50.567899999999995
C      46.508099999999999     45.779550000000000     49.013900000000007
C      48.337699999999998     49.210350000000005     48.560100000000006
C      47.124700000000004     49.679650000000009     49.379100000000008
C      44.463200000000001     46.560450000000003     47.176800000000000
C      48.292999999999992     48.157049999999998     47.608999999999995
C      45.823399999999992     49.095750000000010     49.108800000000002
C      45.254300000000001     46.114450000000005     45.934200000000004
C      44.587999999999994     47.598250000000007     48.123500000000007
C      46.934600000000003     47.688050000000004     47.223399999999998
C      45.676400000000001     48.373750000000001     47.938500000000005
C      49.804699999999997     49.598150000000004     48.942700000000002
C      49.869199999999992     50.453249999999997     50.146200000000007
C      48.585200000000000     50.953649999999996     50.836900000000000
C      47.292800000000000     50.575749999999999     50.536100000000005
C      50.923800000000000     48.792050000000003     48.375799999999998
C      52.186899999999994     49.368949999999998     48.781400000000005
C      52.390000000000001     50.290850000000006     49.875500000000002
C      51.193800000000010     50.915350000000004     50.520499999999998
C      50.870300000000000     47.933650000000000     47.308700000000002
C      49.534500000000008     47.528649999999999     46.860500000000002
C      49.140300000000011     46.384150000000005     46.070000000000007
C      47.785600000000002     45.879450000000006     45.660600000000002
C      46.644800000000004     46.581150000000008     46.242300000000000
C      45.056699999999992     46.005850000000009     48.516000000000005
C      43.175600000000003     48.295550000000006     48.416100000000000
C      44.787099999999995     50.023850000000010     49.903100000000009
C      44.843499999999992     45.270550000000000     44.803500000000000
H      48.502399999999994     46.114249999999998     49.417200000000008
H      47.511299999999991     47.523350000000008     50.559600000000003
H      45.835899999999995     46.150750000000002     51.216400000000007
H      46.484700000000004     44.422049999999999     50.346400000000003
H      47.129000000000005     45.034450000000007     48.376000000000005
H      43.290899999999993     46.317850000000007     47.004700000000000
H      48.652699999999996     51.594549999999998     51.626400000000004
H      46.817499999999995     51.154849999999996     51.294799999999995
H      53.224200000000010     48.934750000000008     48.643200000000007
H      53.310200000000009     50.553750000000008     50.233900000000006
H      51.501599999999996     51.719549999999998     51.268400000000000
H      51.665899999999993     47.547750000000008     46.859300000000005
H      49.931600000000003     45.824750000000009     45.523200000000003
H      47.767799999999994     45.020550000000000     44.945800000000006
H      44.496799999999993     45.574550000000002     49.358199999999997
H      42.689799999999991     49.049950000000010     49.117199999999997
H      42.845199999999991     48.558250000000001     47.372900000000001
H      42.949299999999994     47.292850000000001     49.003100000000003
H      43.783599999999993     49.559849999999997     49.947199999999995
H      44.724999999999994     50.985849999999999     49.355000000000004
H      45.197299999999998     50.433050000000009     50.742500000000007
O      44.631399999999999     44.280450000000002     44.373599999999996
