18

C      48.706699999999984     47.852349999999994     48.755299999999991
C      48.198000000000000     48.614649999999997     47.603200000000001
C      47.974699999999991     47.721150000000002     50.021000000000001
C      47.065399999999990     49.489550000000008     47.759799999999998
C      49.589599999999997     46.730750000000000     48.309200000000004
C      48.501799999999996     48.374450000000003     46.143999999999998
C      46.954699999999995     48.667349999999999     50.146900000000002
C      46.504299999999994     49.629849999999990     49.053400000000003
C      49.792299999999990     46.428950000000000     46.974899999999998
C      49.359499999999990     47.304450000000003     45.957100000000004
H      48.274699999999989     47.037849999999999     50.848100000000002
H      46.690499999999993     50.101649999999999     46.924100000000003
H      49.888399999999997     46.074950000000001     49.101900000000008
H      48.177000000000000     48.879649999999998     45.247599999999998
H      46.658099999999997     48.596850000000003     51.135500000000000
H      45.811500000000002     50.401049999999998     49.150800000000011
H      50.188499999999998     45.598950000000002     46.834800000000001
H      49.447099999999999     47.109450000000002     44.864500000000000
