64

C      50.426849999999995     48.521400000000000     48.820149999999998
C      50.200049999999997     49.754700000000000     48.377749999999999
C      48.096150000000002     45.679900000000004     44.999950000000005
C      47.952050000000000     47.096600000000009     44.177249999999994
C      49.971750000000000     47.445900000000009     47.926250000000003
C      49.540149999999997     49.761500000000012     47.008550000000007
C      48.639649999999996     46.015400000000000     46.292849999999994
C      48.412849999999999     48.521300000000011     44.701150000000005
C      49.000349999999997     47.424300000000002     46.799550000000004
C      48.981650000000002     48.778599999999997     46.089549999999996
C      50.380949999999999     48.322800000000001     50.308650000000007
C      50.608149999999995     49.419600000000003     51.241650000000000
C      50.795450000000002     50.815600000000003     50.595250000000000
C      50.667249999999996     50.893000000000001     49.129449999999999
C      47.856549999999999     44.374000000000009     44.647250000000007
C      47.439749999999997     45.186000000000007     42.518750000000004
C      47.811549999999997     46.536400000000000     42.707150000000006
C      50.070949999999996     47.215900000000005     51.193750000000001
C      50.459449999999997     47.081800000000001     52.666050000000006
C      50.821649999999998     48.224000000000004     53.386111000000007
C      50.897850000000005     49.513199999999998     52.726049999999994
C      49.634149999999998     45.980000000000004     50.704150000000006
C      50.308050000000001     45.967700000000008     48.079150000000006
C      50.455550000000002     44.991300000000010     46.784849999999999
C      49.131349999999998     45.081100000000006     47.254250000000006
C      46.946750000000002     48.176100000000005     44.883950000000006
C      50.050849999999997     51.204200000000000     46.616850000000007
C      50.586149999999989     51.992200000000011     47.983950000000000
C      45.924949999999995     49.153100000000009     44.170750000000005
C      48.519649999999999     44.000900000000001     48.115550000000006
C      45.165050000000001     50.078900000000004     45.320550000000004
C      48.977350000000001     49.394999999999996     43.540650000000007
C      50.834750000000000     45.728700000000003     53.384200000000014
H      48.190149999999996     43.059300000000007     43.159550000000003
H      51.325849999999988     51.446300000000008     51.211850000000005
H      48.129249999999999     43.447600000000008     45.356450000000002
H      47.199849999999998     44.952700000000007     41.431149999999995
H      48.300249999999998     47.195400000000006     41.999550000000006
H      50.989050000000006     48.109300000000005     54.402700000000017
H      51.140050000000002     50.399800000000013     53.296785000000007
H      51.033749999999998     45.837400000000002     46.244850000000007
H      50.925649999999997     43.881800000000013     47.152350000000006
H      47.689050000000002     44.597300000000004     48.772849999999998
H      46.817250000000001     48.275400000000005     45.962049999999998
H      49.347549999999998     51.727199999999996     46.042549999999999
H      50.707949999999997     50.920100000000005     45.641150000000003
H      51.518450000000001     52.541499999999999     47.628750000000004
H      49.960650000000001     52.940699999999993     48.136450000000004
H      51.517249999999990     44.992600000000010     52.701150000000005
H      44.892649999999996     48.783900000000003     43.833250000000000
H      46.813649999999996     49.815100000000001     43.601750000000003
H      47.840849999999996     43.460900000000009     47.480049999999999
H      49.024450000000002     43.353000000000009     48.882550000000002
H      50.782049999999998     45.575200000000009     48.998749999999994
H      45.978149999999999     50.603800000000007     45.876049999999999
H      44.511749999999999     50.840000000000003     44.895750000000000
H      44.481549999999999     49.596299999999999     46.195249999999994
H      48.957549999999998     48.762100000000004     42.625850000000007
H      49.226349999999996     50.337300000000013     43.010150000000003
H      49.930450000000000     49.233199999999997     44.141650000000006
H      50.166550000000001     44.914000000000001     53.423446000000006
H      50.845849999999999     45.687400000000011     54.568850000000005
N      47.585049999999995     43.870000000000005     43.285149999999994
O      49.449449999999999     44.831900000000005     50.795250000000003
