5

C      47.500049999999987     48.289249999999996     47.998699999999992
C      48.802550000000004     47.822250000000004     48.005099999999999
H      49.396049999999995     47.849250000000005     47.164900000000003
H      48.907050000000005     47.186850000000000     48.835099999999997
O      46.603950000000005     48.813150000000000     48.342999999999989
