45

C      48.035384999999991     47.800599999999996     47.437549999999995
C      48.028685000000003     46.810500000000005     48.421250000000001
C      51.130605000000010     45.380099999999999     44.797849999999997
C      48.621100000000006     47.667900000000003     46.117249999999999
C      48.930309999999999     45.629199999999997     48.044950000000000
C      50.496505000000006     46.648899999999998     44.721249999999998
C      50.372655000000009     44.541700000000006     45.661949999999997
C      49.539315000000009     46.551600000000001     45.875149999999998
C      49.648515000000010     45.441500000000005     46.748249999999999
C      46.979284999999997     49.004000000000005     47.724750000000000
C      46.240884999999999     49.225099999999998     49.035950000000000
C      46.491085000000005     48.242000000000004     49.975449999999995
C      47.419085000000003     47.110100000000003     49.819049999999997
C      47.056985000000005     50.029100000000000     46.774749999999997
C      46.091985000000001     51.217799999999997     46.664749999999998
C      45.054785000000003     50.688200000000002     47.544150000000002
C      45.039085000000007     49.965800000000002     48.814149999999998
C      48.597852000000010     48.852599999999995     45.187550000000002
C      47.876285000000003     50.012799999999999     45.623249999999999
C      49.084865000000001     44.628000000000000     49.245649999999998
C      48.601147000000012     45.205700000000000     50.687849999999997
C      47.604585000000007     46.323700000000002     50.968350000000001
C      50.289055000000005     43.701200000000000     49.131549999999990
C      45.689585000000001     52.389800000000001     45.655450000000002
H      51.876815000000001     44.927300000000002     44.156149999999997
H      50.699655000000000     47.504400000000004     43.899850000000001
H      50.787365000000015     43.662100000000002     45.824050000000000
H      45.782585000000005     48.292599999999993     50.808149999999998
H      44.123184999999999     50.015200000000000     49.462550000000007
H      49.568915000000011     48.995699999999999     44.685949999999998
H      48.282160000000012     48.509600000000006     44.261449999999996
H      47.019385000000007     49.714299999999994     44.845950000000002
H      48.283875000000016     50.961399999999998     45.230849999999997
H      48.201289600000017     43.982200000000006     48.884550000000004
H      48.082884999999997     44.431100000000001     51.193550000000002
H      49.485665000000004     45.308199999999999     51.467749999999995
H      47.804485000000007     46.928500000000000     52.100149999999999
H      46.626584999999999     45.938200000000002     51.307950000000005
H      44.319785000000003     51.509200000000007     47.287750000000003
H      50.784095000000008     43.406500000000001     50.090450000000004
H      50.922675000000005     44.093200000000003     48.473650000000006
H      50.035675000000019     42.681500000000000     48.314849999999993
H      45.764185000000005     53.318500000000000     46.122850000000000
H      46.230685000000001     52.584000000000003     44.661050000000003
H      44.574384999999999     52.105400000000003     45.301450000000003
