18

C      48.333249999999992     47.467050000000000     48.188564999999990
C      47.521250000000002     48.767949999999999     48.069285000000001
C      49.737050000000004     47.434349999999995     48.488955000000004
C      48.063350000000000     49.943649999999991     48.317324999999997
C      47.709049999999998     46.097250000000003     48.204364999999996
C      46.062449999999998     48.823749999999990     48.040755000000004
C      50.344349999999999     48.811749999999989     48.518225000000001
C      49.553649999999998     50.002949999999998     48.258505000000000
C      46.271650000000001     46.261949999999999     47.843525000000000
C      45.577249999999999     47.553950000000000     47.799675000000001
H      50.273650000000011     46.422950000000000     48.494745000000002
H      47.579750000000004     50.882549999999995     48.611474999999999
H      48.111150000000002     45.117450000000005     48.618335000000002
H      45.444150000000000     49.579949999999997     47.993575000000000
H      51.381250000000001     48.854649999999992     48.582795000000004
H      49.881149999999998     50.842950000000002     48.537475000000001
H      45.601150000000004     45.431650000000005     47.890355000000000
H      44.618749999999999     47.390450000000001     47.381664999999998
