18

C      47.374549999999985     47.566449999999989     47.547549999999994
C      48.553950000000000     47.892249999999997     48.524450000000002
C      47.432650000000010     46.301150000000000     46.865750000000006
C      49.651750000000007     47.134949999999996     48.570049999999995
C      46.265749999999997     48.536249999999988     47.349350000000001
C      48.651949999999999     49.259949999999996     49.129950000000008
C      48.573450000000008     45.619549999999997     47.315750000000008
C      49.859550000000013     45.864749999999994     48.100850000000008
C      46.530650000000009     49.892549999999993     47.891050000000007
C      47.718750000000000     50.232650000000000     48.658850000000001
H      46.390250000000009     46.150149999999989     46.209649999999996
H      50.482849999999999     47.579849999999993     48.992249999999999
H      45.295249999999996     48.126649999999991     46.921750000000003
H      49.447850000000003     49.465550000000000     49.790350000000004
H      48.466650000000001     44.741549999999997     46.807550000000006
H      50.704750000000004     45.148750000000000     48.276350000000008
H      46.021749999999997     50.854849999999992     47.680350000000004
H      47.849550000000008     51.258450000000003     48.627049999999997
