18

C      47.674899999999987     48.392949999999985     47.883049999999997
C      48.500299999999996     47.216249999999995     48.131750000000004
C      48.043800000000005     49.686649999999993     48.513150000000003
C      49.558199999999999     47.335950000000004     49.029649999999997
C      46.304699999999997     48.395249999999997     47.309850000000004
C      47.945999999999998     45.945050000000002     47.670250000000003
C      49.235600000000005     49.910649999999997     49.211450000000006
C      49.996799999999993     48.686749999999996     49.378850000000007
C      46.003299999999996     47.106149999999992     46.815649999999998
C      46.756199999999993     45.883649999999996     46.905849999999994
H      47.335099999999997     50.455249999999999     48.284349999999996
H      50.312100000000001     46.605749999999993     49.369549999999997
H      45.610699999999994     49.162849999999999     47.217049999999993
H      48.815500000000000     45.153150000000004     47.904249999999998
H      49.533100000000005     50.918050000000001     49.814550000000004
H      50.938000000000002     49.200949999999999     49.788350000000001
H      45.061999999999998     47.170150000000000     46.185449999999996
H      46.299599999999998     45.081949999999999     46.283049999999996
