18

C      48.242449999999998     48.682999999999993     48.364549999999994
C      48.490150000000000     47.415399999999991     47.474849999999989
C      47.931250000000006     48.444999999999993     49.821549999999988
C      48.711650000000006     46.219200000000001     48.214849999999998
C      47.893950000000004     49.864999999999995     47.800349999999995
C      48.245450000000005     47.646599999999992     46.020049999999998
C      48.253249999999994     47.229199999999992     50.388449999999992
C      48.708550000000002     45.994799999999998     49.600649999999987
C      47.684150000000002     50.136799999999994     46.304850000000002
C      47.848849999999999     48.865699999999990     45.605350000000001
H      47.637550000000005     48.980999999999995     50.672449999999998
H      48.749549999999999     45.057899999999989     47.856749999999991
H      47.556749999999994     50.607399999999998     48.851050000000001
H      48.077749999999995     46.845399999999998     45.463849999999994
H      48.392250000000004     47.314099999999996     51.417349999999999
H      48.778350000000003     45.037700000000001     49.900849999999991
H      47.221649999999997     50.962299999999999     45.828949999999992
H      47.469049999999996     48.756199999999993     44.582650000000001
