18

C      48.942999999999998     48.159049999999986     47.718724999999992
C      47.455600000000004     48.330749999999995     47.563142999999997
C      49.553400000000003     46.880849999999995     47.465781499999999
C      46.600500000000004     47.305549999999997     47.008800000000015
C      49.564799999999998     49.227949999999993     48.589409999999994
C      46.543800000000005     49.195949999999996     48.135072999999998
C      48.803100000000008     46.056649999999991     46.453900000000012
C      47.316600000000008     46.197749999999999     46.522300000000001
C      48.723900000000008     49.993049999999997     49.223749999999995
C      47.309100000000008     50.086749999999995     49.025679999999994
H      50.553200000000011     46.590350000000001     47.732887999999996
H      45.556900000000006     47.323349999999991     47.033700000000010
H      50.712799999999994     49.245249999999999     48.801870000000001
H      45.287200000000006     49.149349999999998     47.858228999999994
H      49.395500000000006     45.445650000000001     46.008399999999995
H      46.567200000000007     45.472949999999997     45.958000000000006
H      49.333700000000000     50.415949999999995     50.041999999999994
H      46.774600000000007     50.554349999999999     49.781349999999996
