18

C      47.235149999999983     48.768929999999997     48.482249999999993
C      47.992249999999999     47.349210000000006     48.364449999999998
C      46.274050000000003     49.000840000000004     47.443350000000002
C      47.976349999999996     46.513115000000006     47.357950000000010
C      47.809049999999999     49.555590000000002     49.577350000000003
C      48.993549999999999     46.639445000000002     49.258350000000000
C      46.357749999999996     48.075770000000006     46.240050000000004
C      46.894549999999995     46.782210000000006     46.219850000000001
C      49.084850000000003     49.093520000000005     50.053550000000008
C      49.669749999999993     47.766020000000005     49.918250000000008
H      45.766149999999996     49.927060000000004     47.403150000000004
H      48.559849999999997     45.468369999999993     47.359650000000009
H      47.384749999999997     50.531630000000007     49.759550000000011
H      48.811849999999993     45.531570000000023     49.652549999999998
H      45.607450000000000     47.924020000000006     45.373150000000003
H      46.453850000000003     45.931570000000022     45.487850000000002
H      49.463549999999998     49.908040000000007     50.626849999999997
H      50.392550000000000     47.294690000000003     50.530450000000009
