5

C      48.028049999999993     48.192299999999996     47.653999999999996
H      48.421150000000004     48.001600000000003     48.728000000000002
H      47.128750000000004     48.812500000000000     47.516700000000007
H      47.776750000000000     47.187500000000000     47.271999999999998
H      48.871249999999996     48.613500000000002     47.300199999999997
