18

C      48.202999999999996     47.872249999999994     47.903999999999996
C      47.113900000000001     48.559049999999999     48.582099999999997
C      49.441000000000003     47.152249999999995     48.392199999999988
C      47.474600000000009     48.622050000000002     50.019800000000004
C      48.124700000000004     47.621849999999995     46.418700000000001
C      46.057299999999998     48.868650000000002     47.663299999999992
C      49.825500000000005     47.589249999999993     49.747199999999992
C      48.752000000000010     48.173649999999995     50.568600000000004
C      47.011499999999998     47.804149999999993     45.560999999999993
C      46.002300000000005     48.653549999999996     46.316099999999992
H      50.061999999999998     46.468649999999997     47.826800000000006
H      46.744600000000005     49.162449999999993     50.812100000000001
H      49.052500000000009     47.185649999999995     46.264499999999998
H      45.325000000000003     49.531350000000003     48.076299999999989
H      50.828800000000001     47.210549999999998     49.934200000000004
H      49.188100000000006     48.433749999999989     51.693100000000001
H      47.004000000000005     47.661949999999990     44.306899999999999
H      45.171199999999999     48.989149999999995     45.823899999999995
