18

C      48.259549999999997     47.655749999999983     47.199749999999995
C      48.165750000000003     48.042349999999992     48.600550000000005
C      48.807149999999993     48.723250000000000     46.340650000000004
C      48.664950000000005     49.312350000000002     49.019050000000000
C      47.820049999999995     46.293149999999990     46.770050000000005
C      47.591449999999995     47.182049999999997     49.521750000000004
C      49.131649999999993     49.975850000000001     46.720450000000000
C      49.079650000000001     50.326450000000001     48.162650000000006
C      47.252749999999992     45.570649999999993     47.839149999999997
C      47.234949999999998     45.782249999999998     49.221750000000000
H      48.894049999999993     48.212550000000000     45.399949999999997
H      48.734150000000000     49.479149999999997     50.039149999999999
H      47.987750000000005     45.962650000000004     45.800950000000000
H      47.110849999999999     47.367449999999998     50.600050000000003
H      49.365049999999997     50.703349999999993     45.879150000000003
H      49.557350000000000     51.384650000000001     48.469650000000009
H      46.750249999999994     44.615349999999999     47.499850000000002
H      46.442650000000000     45.264249999999997     49.864350000000009
