33

C      46.758404999999996     42.108049999999992     48.635699999999993
C      47.819904999999999     44.708749999999995     49.066299999999998
C      48.272205000000007     45.710749999999990     50.240399999999994
C      48.430905000000003     48.630949999999984     46.175899999999999
C      48.544905000000007     49.786149999999992     47.229699999999994
C      47.767305000000000     45.464849999999998     47.885099999999994
C      49.165443000000018     46.881049999999988     49.928100000000001
C      48.264805000000003     47.253749999999997     46.296799999999998
C      48.898204999999997     49.139749999999992     48.504999999999995
C      48.445604999999993     46.712449999999990     47.716700000000003
C      48.900304999999996     47.715449999999990     48.724800000000002
C      47.363805000000006     43.316049999999990     49.334199999999996
C      47.322605000000003     42.849949999999993     50.700699999999998
C      47.925104999999995     43.767150000000001     51.694099999999999
C      48.377805000000002     45.175449999999998     51.495800000000003
C      48.341905000000004     49.169649999999990     44.848799999999997
C      48.243505000000006     50.542449999999988     44.491500000000002
C      48.414705000000005     51.506349999999983     45.527500000000003
C      48.720405000000007     51.219749999999991     46.974800000000002
C      48.865704999999998     52.936949999999996     45.548600000000000
H      46.456404999999997     42.105449999999990     47.452399999999997
H      45.983704999999993     42.012850000000000     49.259699999999995
H      47.400605000000006     44.952149999999989     46.946700000000000
H      50.016295000000007     46.992749999999987     50.511499999999998
H      48.088204999999995     46.612249999999989     45.429900000000004
H      49.064931000000009     49.775549999999996     49.440500000000000
H      46.852605000000004     42.154649999999990     51.158099999999990
H      48.004304999999995     43.112649999999988     52.668900000000001
H      48.958756710000010     45.503349999999998     52.384699999999995
H      48.394304999999996     48.288349999999994     44.238799999999998
H      48.118204999999996     51.020849999999996     43.331099999999999
H      49.084423000000008     52.058649999999986     47.380799999999994
O      49.179008000000010     53.987150000000000     45.533299999999997
