18

C      47.960449999999994     47.187800000000003     47.756549999999990
C      48.001849999999997     48.668199999999999     47.400149999999996
C      49.290450000000000     46.620800000000003     48.246549999999999
C      49.024650000000001     49.499600000000001     48.147250000000000
C      46.676850000000002     46.393500000000003     47.700749999999999
C      46.707349999999998     49.287900000000008     47.062250000000006
C      50.285449999999997     47.433500000000009     48.627050000000011
C      50.193750000000001     48.863900000000001     48.613849999999999
C      45.488349999999997     47.066500000000005     47.371250000000003
C      45.547449999999998     48.488600000000005     47.022050000000007
H      49.584150000000001     45.455800000000011     48.497250000000008
H      49.159750000000010     50.575400000000002     48.201449999999994
H      46.387349999999998     45.424599999999998     48.336349999999996
H      46.573450000000001     50.337500000000006     47.202150000000003
H      51.263550000000002     46.935700000000011     49.071450000000013
H      51.165950000000002     49.221900000000005     49.103250000000003
H      44.736449999999998     46.520000000000010     47.745350000000002
H      44.773850000000003     49.362000000000009     46.896749999999997
