51

C      47.932899999999989     47.481849999999987     47.978599999999986
C      47.613529999999997     48.476649999999992     49.082199999999993
C      47.290379999999999     44.078949999999999     51.199099999999994
C      47.697890000000001     46.040849999999999     48.159900000000000
C      46.854489999999998     47.886150000000001     50.191600000000001
C      48.029070000000004     44.241039999999998     49.932600000000001
C      46.703999999999994     45.401820000000001     51.637800000000006
C      47.534289999999999     45.541509999999995     49.554899999999996
C      46.827209999999994     46.482749999999996     50.463199999999993
C      48.518529999999998     48.007149999999996     46.705499999999994
C      48.378169999999997     49.524149999999992     46.479800000000004
C      48.239010000000007     50.448949999999996     47.630100000000006
C      47.823390000000003     49.873249999999999     48.990100000000005
C      48.675610000000006     47.020649999999996     45.628700000000002
C      48.879379999999998     47.644850000000005     44.311000000000000
C      48.788570000000007     49.004649999999998     44.154500000000006
C      48.713400000000007     49.988550000000004     45.148199999999996
C      48.843810000000005     45.665629999999993     45.895599999999995
C      48.263460000000009     45.036239999999992     47.127100000000006
C      48.222819999999999     51.902249999999995     47.391200000000005
C      47.892340000000004     52.636949999999999     48.532000000000004
C      47.470889999999997     52.079650000000001     49.780300000000004
C      47.563299999999998     50.734449999999995     50.202899999999993
C      46.181820000000002     49.154049999999998     50.958999999999996
C      47.455219999999997     50.077249999999992     51.493900000000004
C      49.011790000000005     43.861789999999999     47.698299999999996
C      48.787559999999999     43.099639999999994     49.063399999999994
C      49.972359999999995     43.594329999999999     46.696700000000000
C      45.855829999999997     44.054089999999995     51.393099999999997
C      46.948220000000006     44.298829999999995     46.550099999999993
H      48.013459999999995     43.592739999999999     51.852700000000006
H      48.797960000000003     47.133949999999999     43.300999999999995
H      48.985560000000007     49.641349999999996     43.274200000000000
H      49.099549999999994     51.032650000000004     44.922999999999995
H      48.984999999999999     45.133089999999996     44.842300000000002
H      48.558970000000002     52.649649999999994     46.705999999999996
H      47.832340000000002     53.670450000000002     48.481199999999994
H      47.198229999999995     52.947249999999997     50.548999999999999
H      45.512619999999998     49.699050000000000     50.261000000000003
H      45.624549999999999     48.653449999999992     51.727600000000002
H      48.446529999999996     49.747450000000001     51.601300000000002
H      47.196740000000005     50.827949999999994     52.311500000000002
H      48.086470000000006     42.329549999999998     48.676899999999996
H      49.553020000000004     42.365769999999998     49.545399999999994
H      45.355400000000003     43.448179999999994     52.058299999999996
H      45.486620000000002     44.037520000000001     50.368199999999995
H      47.013409999999993     45.830449999999999     52.725800000000000
H      46.894049999999993     43.210789999999996     47.106500000000004
H      46.464339999999993     43.946489999999997     45.473300000000002
H      45.999589999999998     44.903719999999993     46.970499999999994
O      50.644599999999997     43.288319999999999     45.876899999999999
