13

C      46.472949999999990     50.732199999999992     49.185449999999996
H      50.336849999999998     45.422399999999996     47.922350000000009
H      48.795249999999996     46.079200000000000     47.263750000000002
H      48.533450000000002     48.293599999999998     46.475450000000009
H      49.590850000000003     50.030999999999999     46.848250000000007
H      49.209450000000004     44.371299999999998     46.475149999999999
H      47.551349999999999     47.705300000000001     47.798150000000007
H      47.983449999999991     50.196899999999999     48.260450000000006
N      49.454250000000002     44.864500000000000     47.452349999999996
O      48.615749999999998     49.679400000000001     47.061350000000004
O      45.663150000000002     51.628700000000002     49.036850000000001
O      47.836350000000003     47.133699999999997     46.866150000000005
O      47.426650000000002     50.041300000000000     49.524850000000001
