18

C      48.006549999999990     48.323849999999993     48.834350000000001
C      47.969250000000002     48.371949999999998     47.291550000000001
C      48.380350000000007     47.072849999999995     49.455349999999996
C      47.719049999999996     46.861249999999998     46.886449999999996
C      47.335049999999995     49.459750000000000     49.159050000000008
C      48.654550000000000     47.777949999999997     46.209150000000008
C      48.491650000000007     45.751149999999996     48.767250000000004
C      48.114750000000001     45.557049999999997     47.433250000000001
C      47.405249999999995     50.414549999999998     48.055949999999996
C      47.742649999999998     49.822150000000001     46.785449999999997
H      48.397649999999999     47.058349999999997     50.642449999999997
H      46.791849999999997     46.691449999999996     46.355649999999997
H      46.967950000000002     49.884949999999996     50.112349999999992
H      49.208150000000003     47.430949999999996     45.357550000000003
H      48.818750000000009     44.702750000000002     49.164450000000002
H      48.404650000000004     44.670349999999999     46.859549999999999
H      47.083950000000002     51.329650000000001     48.410449999999997
H      47.906149999999997     50.043949999999995     45.649540000000002
