60

C      46.964999999999996     44.947449999999989     51.331699999999998
C      47.314900000000009     45.896049999999988     50.079200000000000
C      51.659500000000008     51.374549999999999     51.668099999999995
C      47.874500000000012     44.972449999999995     52.448800000000006
C      51.691100000000006     51.991649999999979     50.308300000000003
C      47.627400000000009     47.191549999999992     50.401499999999999
C      50.595600000000005     50.417549999999991     51.437500000000000
C      50.355000000000004     51.677349999999990     48.044100000000000
C      49.167100000000005     50.829849999999993     47.525599999999997
C      47.465299999999999     48.833849999999984     47.833399999999997
C      50.658300000000011     51.443249999999978     49.446200000000005
C      48.324800000000010     47.504649999999984     51.708799999999997
C      48.427400000000006     49.744249999999980     48.365300000000005
C      49.856999999999999     50.453649999999996     50.083299999999994
C      48.175100000000000     48.364749999999987     50.543599999999998
C      48.824200000000005     49.469449999999981     49.804199999999994
C      45.567100000000011     44.342549999999989     51.501599999999996
C      44.671300000000002     45.570549999999983     51.422799999999995
C      44.129300000000001     44.430049999999994     50.979699999999994
C      46.577600000000004     45.359549999999999     48.902500000000003
C      51.299000000000007     52.697549999999993     47.341799999999992
C      50.082000000000008     51.796049999999994     45.313000000000002
C      49.080700000000007     51.172249999999977     46.217300000000009
C      52.389900000000011     53.348450000000000     48.168999999999997
C      52.459500000000006     53.100549999999998     49.622199999999992
C      47.746800000000007     43.705249999999992     51.655599999999993
C      46.981100000000012     42.646049999999988     52.523700000000005
C      45.591800000000006     43.365949999999998     52.672200000000004
C      51.041700000000006     52.749949999999998     45.969400000000007
C      49.411000000000001     51.608449999999991     44.024299999999997
C      49.000000000000000     52.768549999999976     43.245000000000005
C      52.180000000000007     53.445749999999990     45.137900000000002
C      48.331000000000003     46.414449999999988     52.563100000000006
C      48.552800000000005     43.310849999999988     50.321200000000005
H      52.396300000000011     51.620350000000002     52.377099999999999
H      50.172900000000013     49.857649999999992     52.364000000000004
H      46.938200000000009     48.085849999999994     48.326799999999992
H      46.953600000000009     48.923449999999988     46.810000000000002
H      44.196300000000008     46.484049999999996     51.462099999999992
H      43.053899999999999     44.138349999999988     50.754899999999992
H      48.295100000000005     50.687449999999998     45.688600000000008
H      52.335200000000000     53.256949999999989     43.973399999999998
H      52.684500000000000     53.768549999999991     50.554900000000004
H      52.851200000000006     54.169150000000002     47.727400000000003
H      47.450300000000013     42.592749999999995     53.500799999999998
H      47.125100000000003     41.581249999999997     52.302099999999996
H      44.779400000000010     42.716749999999990     52.914000000000001
H      45.535100000000000     43.978749999999991     53.617999999999995
H      48.665900000000008     50.897449999999978     44.170299999999997
H      50.077700000000007     51.324950000000001     43.347700000000003
H      49.487400000000008     53.509549999999976     43.739800000000002
H      49.627800000000008     52.668949999999995     42.382000000000005
H      48.122399999999999     52.562749999999994     42.741900000000001
H      51.827600000000004     54.418750000000003     44.643900000000002
H      52.946100000000001     54.382049999999992     45.611000000000004
H      48.674000000000007     46.791049999999998     53.486499999999992
H      48.076599999999999     43.471349999999987     49.327200000000005
H      48.941300000000012     42.303449999999998     50.224999999999994
H      49.509500000000003     43.736249999999998     50.248800000000003
O      46.117300000000000     44.672449999999998     48.170500000000004
