18

C      48.137799999999984     48.420929999999991     48.779749999999993
C      47.234799999999993     47.430929999999996     47.961849999999998
C      47.768400000000000     49.819130000000001     48.593350000000001
C      46.282600000000002     48.057829999999996     47.091650000000001
C      49.423599999999993     47.937829999999998     49.387149999999998
C      47.382700000000000     46.084309999999995     48.462750000000000
C      46.796700000000001     50.319429999999997     47.648550000000000
C      46.432499999999990     49.336729999999989     46.705849999999998
C      49.466800000000006     46.515339999999995     49.808050000000001
C      48.561999999999998     45.632399999999997     49.115349999999999
H      47.849299999999999     50.712329999999994     49.453450000000004
H      45.681699999999992     47.244029999999995     46.859650000000002
H      50.029200000000003     48.770429999999990     49.548049999999996
H      46.713999999999999     45.290169999999996     48.346850000000003
H      46.524599999999992     51.338430000000002     47.718950000000000
H      45.805599999999998     49.665229999999994     45.929150000000000
H      50.318300000000008     45.914069999999995     50.070850000000000
H      48.862299999999991     44.661569999999998     49.452150000000003
