18

C      48.294150000000002     47.243299999999998     47.755249999999990
C      48.869749999999996     48.647400000000005     47.559149999999995
C      46.898250000000004     47.400199999999998     47.423649999999995
C      48.428950000000000     49.811300000000003     46.830849999999998
C      48.893749999999997     45.949699999999993     48.426949999999998
C      49.756850000000000     49.161699999999996     48.575750000000006
C      46.476150000000004     48.280599999999993     46.448249999999994
C      47.188950000000006     49.524599999999992     46.261449999999996
C      49.660150000000002     46.631399999999999     49.287749999999996
C      50.143450000000001     48.032399999999996     49.345849999999992
H      46.234850000000009     46.571500000000000     47.659250000000000
H      48.785250000000005     51.086600000000004     46.881250000000001
H      48.412850000000006     44.913399999999996     48.257950000000001
H      49.952750000000009     50.212599999999995     48.855650000000004
H      45.406350000000003     47.849699999999999     46.062449999999998
H      46.698850000000007     50.351900000000001     45.771049999999995
H      49.653549999999996     45.819299999999998     50.189149999999991
H      50.593649999999997     48.548199999999994     50.228950000000005
