18

C      48.283399999999986     48.794749999999993     47.359583999999984
C      47.513700000000000     48.032850000000003     48.418983999999988
C      49.543899999999994     48.982950000000002     48.034483999999999
C      47.703800000000001     47.973250000000000     49.924883999999999
C      48.085599999999999     48.876150000000003     45.930783999999996
C      46.424999999999997     47.387450000000001     47.798183999999999
C      49.686900000000009     48.929250000000003     49.395783999999999
C      48.777800000000013     48.511150000000001     50.567583999999989
C      46.754499999999993     48.623950000000001     45.482783999999988
C      46.144000000000005     47.630949999999999     46.354583999999996
H      50.401000000000010     49.243650000000002     47.523583999999992
H      46.757700000000000     47.686149999999998     50.379083999999999
H      49.003100000000003     49.142650000000010     45.433683999999992
H      45.656599999999997     46.756349999999998     48.285784000000000
H      50.509600000000006     49.239449999999998     50.124083999999989
H      48.875900000000001     48.737150000000000     51.604616000000000
H      46.454700000000003     48.934350000000002     44.395384000000000
H      45.490399999999994     46.874650000000003     45.947283999999989
