18

C      47.701349999999991     48.718299999999999     48.206749999999992
C      48.086550000000003     47.316499999999991     47.936650000000000
C      47.921650000000000     49.820299999999989     47.177250000000001
C      48.116550000000004     47.039599999999993     46.480649999999997
C      47.642650000000003     48.999899999999997     49.568150000000003
C      48.070049999999995     46.268000000000001     48.860950000000003
C      48.213149999999999     49.444499999999991     45.814850000000000
C      48.155249999999995     48.012199999999993     45.422449999999998
C      47.674250000000001     47.993299999999991     50.643349999999998
C      47.915149999999997     46.668599999999998     50.259850000000000
H      47.803950000000000     50.807400000000001     47.419250000000005
H      47.844650000000001     46.043700000000001     46.147750000000002
H      47.495649999999998     49.953599999999994     50.033650000000002
H      48.147250000000000     45.192599999999999     48.574249999999992
H      48.025049999999993     49.698399999999992     44.662849999999999
H      48.520250000000004     47.613799999999998     44.327449999999999
H      47.479749999999996     48.175100000000000     51.672550000000001
H      48.036850000000001     45.834599999999995     50.952950000000001
