18

C      48.160049999999991     48.674249999999994     47.512649999999994
C      47.773949999999999     47.198450000000008     47.912050000000001
C      46.955249999999999     49.382350000000002     47.220750000000002
C      46.575650000000003     46.609049999999996     47.595649999999999
C      49.323149999999998     49.398449999999997     48.012650000000001
C      48.789150000000006     46.639150000000001     48.684449999999998
C      45.904550000000000     48.510050000000007     46.494250000000001
C      45.681849999999997     47.109049999999996     46.629550000000002
C      50.380450000000010     48.716049999999996     48.730950000000000
C      49.999549999999999     47.387450000000001     49.143650000000001
H      46.562849999999997     50.427450000000007     47.328550000000000
H      46.342250000000000     45.696950000000001     48.149350000000005
H      49.739249999999998     50.512349999999998     47.754249999999992
H      48.845450000000000     45.487650000000002     48.658850000000001
H      44.997549999999997     48.999049999999997     46.232149999999997
H      44.921250000000001     46.377250000000004     46.488950000000003
H      51.078749999999999     49.298249999999996     49.160750000000000
H      50.240650000000002     46.391649999999998     49.767850000000003
