75

C      47.739509999999996     46.205999999999989     47.499749999999999
C      46.950119999999998     46.346699999999998     48.679549999999992
C      49.234010000000005     50.942200000000000     48.105249999999998
C      48.083809999999993     51.110900000000001     49.156250000000000
C      48.649909999999998     47.326000000000008     47.143550000000005
C      47.174659999999996     47.475300000000004     49.671750000000003
C      49.564309999999999     49.694400000000002     47.547849999999997
C      47.642710000000001     49.982200000000006     49.898049999999998
C      48.662210000000002     48.560000000000002     47.983149999999995
C      47.809109999999997     48.680099999999996     49.226050000000001
C      47.505879999999998     44.939899999999994     46.690449999999998
C      46.505389999999998     44.002399999999994     47.046750000000003
C      45.715339999999998     44.252899999999997     48.344250000000002
C      45.816319999999997     45.405400000000000     49.028449999999992
C      49.849510000000002     52.259200000000007     47.636449999999996
C      49.790309999999998     53.530400000000000     48.408749999999998
C      48.620910000000002     53.493399999999994     49.239450000000005
C      47.830010000000001     52.461399999999998     49.865349999999992
C      48.089410000000001     45.039600000000007     45.334649999999996
C      47.884709999999991     43.661900000000003     44.813649999999996
C      47.446719999999999     42.387400000000000     45.387349999999998
C      46.511069999999997     42.573599999999999     46.519250000000000
C      49.846110000000003     46.903300000000002     46.189650000000000
C      49.572710000000001     45.236100000000008     45.574849999999998
C      46.867750000000001     47.576499999999996     51.165149999999997
C      45.828600000000002     46.468599999999995     51.444249999999997
C      44.854430000000001     45.708900000000000     50.239249999999998
C      50.537709999999997     49.685800000000000     46.322249999999997
C      51.052909999999990     50.931100000000001     45.765649999999994
C      50.981710000000000     52.207499999999996     46.527749999999997
C      50.381909999999998     51.130399999999995     44.313850000000002
C      46.644150000000003     52.512799999999999     50.912149999999997
C      45.586010000000002     41.818399999999997     47.292149999999992
C      45.310090000000002     53.146100000000004     50.254750000000001
C      44.810530000000000     54.417299999999997     51.190650000000005
C      47.760910000000003     46.293999999999997     44.371750000000006
C      46.078650000000003     46.001999999999995     44.490549999999999
H      46.927349999999997     49.785700000000006     50.653149999999997
H      44.999919999999996     43.376400000000004     48.727249999999998
H      50.434009999999994     54.335999999999999     48.312950000000001
H      48.320810000000002     54.579400000000007     48.882750000000001
H      48.142009999999999     43.441500000000005     43.925550000000001
H      47.604509999999998     41.331199999999995     45.173050000000003
H      50.659210000000002     46.851100000000002     46.901849999999996
H      50.015210000000003     47.410499999999999     45.142849999999996
H      49.967509999999997     44.472099999999998     46.440849999999998
H      50.382910000000003     45.111100000000008     44.725849999999994
H      46.315019999999997     48.475300000000004     51.510249999999999
H      47.770509999999994     47.800200000000004     51.881850000000000
H      46.354140000000001     45.686999999999998     51.913849999999996
H      45.554789999999997     46.717600000000004     52.475750000000005
H      44.123860000000001     44.900700000000001     50.426349999999999
H      44.133330000000001     46.661700000000010     49.822249999999997
H      51.290609999999994     49.020499999999998     46.873350000000002
H      50.200110000000002     49.038300000000007     45.483149999999995
H      52.224609999999998     50.729600000000005     45.295349999999999
H      50.966810000000002     53.107100000000003     46.117049999999992
H      52.047210000000000     52.446700000000007     46.681250000000006
H      49.658110000000001     51.851399999999998     44.627349999999993
H      50.445709999999998     50.091400000000007     44.046049999999994
H      50.809609999999999     51.776899999999998     43.566050000000004
H      46.378430000000002     51.462699999999998     51.314149999999998
H      46.966249999999995     53.365700000000004     51.907849999999996
H      45.352060000000002     40.771299999999997     47.139550000000000
H      44.911690000000000     42.214900000000000     47.798649999999995
H      45.565449999999998     53.275999999999996     49.150449999999992
H      44.430079999999997     52.412099999999995     50.062650000000005
H      45.544460000000001     55.228700000000003     51.281049999999993
H      44.608530000000002     53.927599999999998     52.144750000000002
H      43.775390000000002     55.066800000000001     51.163349999999994
H      48.155809999999995     45.877600000000001     43.524249999999995
H      48.049709999999997     47.152699999999996     44.708650000000006
H      45.921280000000003     44.728099999999998     44.324150000000003
H      45.662500000000001     46.315899999999999     45.769549999999995
H      45.561959999999999     46.445099999999996     43.591849999999994
