18

C      47.692449999999994     47.678029999999993     48.605199999999996
C      48.310749999999999     47.648949999999999     47.395700000000005
C      48.540249999999986     47.691730000000007     49.636399999999995
C      49.733349999999987     47.937620000000010     47.326499999999996
C      46.240549999999999     47.638290000000012     48.665300000000002
C      47.482249999999993     47.639940000000010     46.223299999999995
C      49.951049999999995     47.954230000000010     49.764399999999995
C      50.581350000000000     48.178090000000012     48.429699999999997
C      45.354450000000000     47.534590000000009     47.543199999999999
C      46.039150000000006     47.710590000000010     46.260700000000000
H      47.779150000000001     47.430560000000000     50.407399999999996
H      50.212950000000006     47.846510000000009     46.352499999999992
H      45.611850000000004     47.433390000000003     49.567999999999998
H      48.239949999999993     47.801250000000010     45.352800000000002
H      50.077549999999988     48.589269999999999     50.686099999999996
H      51.715549999999993     48.486280000000008     48.194299999999998
H      44.284450000000007     47.410730000000001     47.746200000000002
H      45.612449999999995     47.603690000000000     45.313900000000004
