50

C      47.741653999999997     48.462374999999987     44.908418499999996
C      47.531396000000001     47.567544999999996     46.222418499999989
C      43.820390000000003     49.058154999999985     53.103668499999998
C      44.288190000000014     47.687844999999996     53.563868499999998
C      48.864970000000000     48.704954999999984     43.933128499999995
C      48.615339999999989     46.908844999999992     48.060948499999995
C      44.363689999999991     50.125674999999987     49.013838500000006
C      44.878290000000021     48.905445000000000     49.409468500000003
C      46.699090000000012     48.141054999999994     47.298138500000007
C      47.341414999999998     47.826094999999995     48.537808499999997
C      51.480670000000003     49.207835000000003     46.227588499999996
C      51.043040000000005     47.946214999999995     46.896558499999998
C      49.829269999999994     47.046094999999994     47.074738499999995
C      48.577179999999998     46.488964999999993     46.584378500000000
C      44.351689999999991     46.216274999999996     53.698568500000007
C      44.298889999999986     48.817674999999994     54.535668500000000
C      43.759689999999992     49.274034999999991     51.672668500000000
C      44.721090000000018     48.487394999999992     50.839368499999992
C      50.613119999999995     50.191944999999990     45.612168499999996
C      50.057710000000000     51.291224999999997     46.307528500000004
C      52.247230000000002     48.504714999999990     47.260118499999990
C      50.177400000000006     48.476224999999999     43.622698499999998
C      50.150720000000007     49.923234999999991     44.144448499999996
C      45.939590000000010     48.187614999999994     48.643238499999995
C      49.010469999999998     48.030774999999991     42.636248500000008
C      48.743800000000007     49.257544999999993     41.500438500000001
C      51.257610000000000     47.441734999999994     43.351368500000007
C      48.145799999999994     44.967694999999992     46.237928499999995
C      46.897890000000018     49.548324999999991     44.854778499999995
H      48.831550000000007     45.863814999999995     48.745538499999995
H      48.421160000000000     43.765205000000009     46.380328500000005
H      43.546589999999995     48.753654999999995     55.378468499999997
H      43.228089999999995     50.139284999999987     51.256568500000000
H      45.097389999999976     47.594234999999991     51.112768500000001
H      52.771910000000005     48.185574999999993     48.145608499999994
H      51.189980000000006     46.990554999999993     42.328688499999998
H      50.392959999999988     50.770614999999992     43.377208499999995
H      48.223709999999997     48.859025000000003     40.621531500000003
H      48.297839999999994     47.064794999999989     42.554458499999996
H      48.002260000000007     50.158054999999990     41.819278499999996
H      49.549830000000000     49.797285000000002     41.148588500000002
H      50.815979999999996     46.484654999999989     43.790658500000006
H      51.926969999999997     48.513584999999992     43.359868500000005
H      47.858293000000003     45.246534999999994     45.175168499999998
H      47.443084999999996     45.047414999999994     47.141638499999999
H      46.725089999999994     50.333554999999990     44.105668500000007
H      45.959890000000001     49.359285000000000     45.451788500000006
O      44.172890000000024     45.139044999999996     53.648368500000004
O      43.940990000000028     51.160994999999986     49.263808499999996
O      49.588859999999997     52.234794999999991     46.778728500000000
