42

C      47.967599999999990     47.606719999999996     48.116354999999984
C      48.307199999999995     46.229659999999996     47.785394999999994
C      46.703500000000005     44.120010000000008     51.928174999999996
C      48.046300000000002     43.859639999999999     51.740774999999999
C      48.313000000000002     48.810040000000001     49.117244999999997
C      49.072299999999998     46.145679999999999     48.833785000000006
C      49.971500000000006     46.473479999999995     51.293675000000007
C      49.178500000000014     44.620480000000001     51.187574999999995
C      48.788600000000002     47.292029999999997     51.077174999999997
C      48.848600000000005     45.930940000000007     50.495444999999989
C      47.515500000000003     48.303939999999997     46.831384999999997
C      46.864099999999993     47.805089999999993     45.709474999999998
C      47.815899999999999     45.709419999999994     46.611575000000002
C      48.154900000000012     50.258949999999999     48.711304999999996
C      47.192800000000005     50.846919999999997     47.618564999999990
C      47.925899999999999     49.790869999999998     46.891435000000001
C      45.780000000000001     50.530209999999997     47.793075000000002
C      47.076099999999997     52.389499999999998     47.146484999999998
C      49.435900000000004     51.128000000000000     49.224984999999990
C      46.662099999999995     48.731529999999992     44.629904999999994
C      48.429900000000004     48.618849999999995     50.511984999999996
H      48.564500000000010     42.915400000000005     51.921274999999994
H      50.072200000000009     45.913600000000002     48.631874999999994
H      50.844999999999999     46.858429999999998     51.881675000000001
H      49.950599999999994     44.076160000000002     50.639084999999994
H      48.153900000000007     44.618899999999996     46.456864999999993
H      48.658600000000007     50.151929999999993     46.288815000000000
H      45.155000000000001     49.769909999999996     47.252364999999998
H      45.186300000000003     51.250299999999996     47.231304999999992
H      45.395899999999997     50.768219999999999     48.793615000000003
H      46.590699999999998     52.493299999999991     48.059314999999998
H      47.884600000000006     53.084599999999995     47.446574999999996
H      46.795800000000000     52.341300000000004     46.196154999999990
H      50.280200000000008     50.596660000000000     48.900244999999998
H      49.330000000000013     52.031099999999995     48.735804999999999
H      49.601399999999998     51.756399999999999     50.166565000000006
H      45.998999999999995     48.427999999999997     43.921724999999995
H      46.814000000000007     49.781350000000003     44.851524999999995
H      48.398700000000005     49.543750000000003     51.116375000000005
H      46.480699999999999     45.725830000000002     44.813164999999998
N      46.782799999999995     46.250230000000002     45.848185000000001
O      45.599400000000003     44.154910000000001     52.078275000000005
