18

C      47.990599999999993     48.512599999999992     48.507999999999988
C      47.679900000000004     47.433199999999999     47.541099999999986
C      48.671000000000006     49.715100000000007     48.072099999999992
C      48.105800000000002     47.709599999999995     46.116299999999995
C      47.471899999999998     48.627200000000002     49.939340999999999
C      47.069400000000002     46.199500000000000     48.259199999999993
C      49.042400000000001     49.783700000000010     46.609599999999986
C      48.703699999999998     48.980400000000003     45.648699999999991
C      46.888900000000000     47.445700000000002     50.347330999999997
C      46.807000000000002     46.205900000000000     49.668590600000002
H      48.764399999999995     50.635900000000007     48.713999999999999
H      47.934899999999999     46.959000000000003     45.325799999999987
H      47.637100000000004     49.515699999999995     50.420575999999997
H      47.137599999999999     45.170699999999997     48.066799999999986
H      49.601900000000001     50.829300000000003     46.362699999999990
H      49.234899999999996     49.496899999999997     44.619799999999998
H      46.542500000000004     47.552000000000007     51.380200000000002
H      46.398099999999999     45.239000000000004     50.162655999999998
