18

C      47.874499999999998     47.997789999999995     48.811349999999990
C      47.888500000000001     47.996569999999991     47.232750000000003
C      49.084200000000003     47.166919999999990     49.244350000000004
C      48.783800000000006     47.323759999999993     46.339050000000007
C      46.816799999999994     48.496429999999989     49.561850000000000
C      46.929700000000004     48.615359999999995     46.559450000000005
C      50.188200000000002     46.900219999999990     48.431350000000002
C      50.041000000000004     46.945689999999999     46.908250000000002
C      45.833999999999996     48.998659999999987     48.634049999999995
C      45.798800000000007     49.082309999999993     47.209449999999997
H      49.065000000000005     46.547439999999995     50.186349999999997
H      48.476999999999997     47.136510000000001     45.343349999999994
H      46.611399999999996     48.296300000000002     50.656650000000006
H      46.904699999999998     48.792090000000002     45.409050000000001
H      51.216100000000004     46.417580000000001     48.909150000000004
H      50.963500000000003     46.369950000000003     46.341950000000004
H      44.783899999999996     49.177319999999995     49.269150000000003
H      44.920300000000005     49.630049999999997     46.620250000000006
