18

C      47.322899999999990     47.736950000000000     47.773999999999994
C      48.597299999999997     48.591350000000006     47.785400000000010
C      45.955300000000001     48.006450000000001     48.065300000000008
C      48.201699999999995     49.844750000000005     48.376199999999997
C      47.628899999999994     46.207149999999999     47.296800000000005
C      49.940799999999996     47.971450000000004     47.647800000000004
C      45.812599999999996     49.282049999999998     48.696500000000000
C      46.939099999999996     50.155450000000002     48.909599999999998
C      48.938400000000009     45.983750000000001     46.767700000000005
C      50.046199999999999     46.793450000000007     46.899400000000000
H      45.097400000000000     47.308750000000003     48.072600000000001
H      49.008199999999995     50.615150000000000     48.350400000000008
H      46.771499999999996     45.715350000000001     47.228600000000000
H      50.898399999999988     48.404449999999997     47.971900000000005
H      44.920000000000002     49.901849999999996     48.775800000000004
H      46.748999999999995     51.168250000000000     49.436300000000003
H      49.061999999999991     44.831750000000000     46.563699999999997
H      51.079999999999998     46.269450000000006     46.754700000000000
