17

C      48.324049999999993     47.719799999999999     48.681849999999997
C      48.776550000000000     48.261200000000002     47.347449999999995
C      46.925550000000001     47.941000000000003     48.781850000000006
C      48.085650000000001     49.147700000000000     46.357150000000004
C      49.053250000000006     46.929500000000004     49.734849999999994
C      49.998250000000013     47.692999999999998     47.414850000000001
C      46.073450000000008     48.555899999999994     47.817450000000008
C      46.688650000000010     49.290499999999994     46.718350000000001
C      50.270949999999999     46.599600000000002     49.977849999999989
C      50.347350000000006     46.965699999999998     48.686549999999997
H      46.346750000000000     47.857100000000003     49.800649999999990
H      48.617050000000006     49.766599999999997     45.649050000000003
H      48.249950000000013     46.402700000000003     50.350949999999997
H      50.789550000000006     48.170100000000005     46.659149999999997
H      44.940049999999999     48.644199999999998     48.100350000000006
H      46.096450000000004     49.914699999999996     46.232550000000003
H      51.059950000000001     46.085300000000004     50.333050000000000
