18

C      47.972636499999993     47.417149999999992     47.218750000000000
C      47.976396500000007     48.175850000000004     48.515450000000008
C      49.283086499999996     46.931249999999999     46.900150000000004
C      49.123276500000003     47.975550000000005     49.530449999999995
C      46.920916500000004     47.505049999999997     46.426550000000006
C      46.727966499999994     48.858649999999997     48.871550000000006
C      50.354846500000008     46.770649999999996     47.883150000000008
C      50.159826500000008     47.061850000000000     49.299550000000004
C      45.707596499999994     48.052349999999997     46.582450000000001
C      45.632836499999996     48.943950000000008     47.873749999999994
H      49.374806500000005     46.561850000000000     45.843950000000007
H      48.940496499999995     48.568449999999999     50.450049999999997
H      46.823076499999999     46.832149999999999     45.549950000000003
H      46.820396500000001     49.109550000000006     49.900050000000014
H      51.414066500000004     46.591650000000001     47.563450000000003
H      50.979546500000012     46.770850000000003     50.008550000000007
H      44.946280500000000     48.098250000000000     45.726250000000007
H      44.585933499999996     49.438150000000000     48.169249999999998
