18

C      47.199799999999996     47.823699999999995     48.447299999999991
C      48.250999999999998     48.438600000000008     47.537999999999997
C      47.383699999999997     48.551400000000001     49.626300000000001
C      49.267699999999998     49.404799999999994     47.896900000000002
C      46.237199999999994     46.862000000000002     48.257400000000004
C      48.071599999999997     48.025499999999994     46.260800000000003
C      48.553300000000000     49.120000000000005     50.150700000000001
C      49.598099999999995     49.639400000000009     49.196500000000000
C      46.333400000000005     46.391100000000002     46.974000000000004
C      47.103800000000000     46.958900000000000     45.854699999999994
H      46.753999999999998     48.304400000000001     50.450099999999999
H      50.095000000000006     49.663200000000003     47.123500000000000
H      45.469100000000005     46.600499999999997     48.964700000000008
H      48.637899999999995     48.088099999999997     45.367699999999999
H      48.654900000000005     49.386099999999999     51.217900000000000
H      50.530899999999995     50.259299999999996     49.483400000000003
H      45.709399999999995     45.740700000000004     46.523600000000002
H      46.863199999999999     46.690799999999996     44.782100000000000
