6

C      47.876999999999995     47.859599999999993     47.220098999999990
C      47.602800000000002     47.533100000000005     48.662339000000003
H      47.931100000000001     48.985799999999998     47.453749000000009
H      47.085499999999996     47.517499999999998     46.491070999999998
H      48.914500000000004     47.477899999999998     46.762235000000004
O      47.293999999999997     47.014200000000002     49.508929000000002
