7

C      46.928649999999990     47.330449999999999     48.088200000000001
H      49.347650000000002     49.624650000000003     49.311900000000001
H      47.749050000000011     46.619749999999996     46.403500000000001
H      47.837750000000000     48.857050000000001     49.528400000000012
O      47.177650000000000     46.375349999999997     47.358300000000007
O      46.652349999999998     48.203150000000008     48.894500000000001
O      49.240449999999996     48.753349999999998     49.596499999999999
