18

C      47.148349999999994     47.677349999999997     48.298249999999996
C      48.610249999999994     48.265950000000004     47.856549999999999
C      46.545850000000002     46.596249999999998     47.593049999999998
C      48.766749999999988     47.822450000000003     46.449050000000000
C      47.010149999999996     48.234949999999998     49.733350000000002
C      49.455950000000001     49.252949999999998     48.316049999999997
C      46.653250000000000     46.558149999999998     46.146850000000001
C      47.857449999999986     47.057150000000000     45.680850000000000
C      48.140049999999988     49.014349999999993     50.441049999999997
C      49.212149999999994     49.500450000000001     49.771749999999997
H      45.633949999999999     46.139150000000001     48.225149999999999
H      49.643550000000005     48.021549999999991     45.683650000000000
H      46.027349999999998     48.537750000000003     50.351250000000000
H      50.366050000000001     49.639250000000004     47.784349999999996
H      46.083150000000003     45.935350000000000     45.502450000000003
H      48.019149999999996     46.807050000000004     44.585850000000001
H      48.041049999999998     49.481849999999994     51.414149999999999
H      50.020449999999997     50.064650000000000     50.334249999999997
