37

C      49.638599999999990     49.875499999999988     49.531349999999996
C      48.508600000000001     43.675199999999997     45.577050000000000
C      48.275999999999996     49.735400000000006     49.311950000000010
C      50.574200000000005     49.134899999999995     48.510850000000005
C      49.632800000000003     44.733100000000000     45.835949999999997
C      47.740099999999998     48.834399999999995     48.326850000000007
C      46.748599999999996     46.345999999999997     47.394250000000000
C      50.670199999999994     46.811599999999999     46.940250000000006
C      50.025099999999995     48.094000000000001     47.778750000000002
C      49.381900000000002     45.838400000000000     46.529650000000004
C      48.620300000000000     47.772300000000001     47.846450000000004
C      48.179699999999997     46.563299999999998     47.183850000000007
C      46.207499999999996     48.578800000000001     48.207650000000001
C      45.760599999999997     47.405999999999999     47.690250000000006
C      50.355800000000002     51.057899999999997     50.158050000000003
C      49.447699999999998     52.109299999999998     50.654049999999998
C      48.041899999999998     51.731100000000005     50.746350000000007
C      47.351500000000001     50.537299999999995     50.182749999999999
C      45.812300000000008     50.206300000000006     49.988950000000003
C      45.301699999999997     49.752500000000005     48.327950000000001
C      50.061999999999998     53.345999999999997     50.557150000000007
C      45.332800000000006     46.011800000000001     47.312950000000001
H      47.706800000000001     44.224499999999999     45.056849999999997
H      51.668099999999995     49.278299999999994     48.314850000000007
H      50.648700000000005     44.696899999999999     45.598750000000010
H      51.344300000000004     47.202599999999997     46.113150000000005
H      51.262000000000000     46.533999999999999     47.797849999999997
H      51.509500000000003     51.011199999999995     50.220250000000007
H      47.304299999999998     52.504299999999994     50.943150000000003
H      45.111199999999997     51.131599999999999     49.961849999999998
H      45.503600000000006     49.666599999999995     50.804450000000003
H      44.331900000000005     49.839199999999998     48.202950000000001
H      45.907499999999999     50.669000000000004     47.919550000000001
H      44.351600000000005     45.341200000000001     47.387550000000005
H      48.942599999999999     41.680900000000001     46.298349999999999
N      48.355400000000003     42.375000000000000     45.878150000000005
O      50.567099999999996     54.319099999999999     50.419449999999998
