18

C      47.339749999999995     48.578749999999985     48.289049999999989
C      48.474950000000000     47.976249999999993     47.513349999999996
C      46.046450000000000     48.825150000000008     47.574149999999996
C      48.219150000000006     47.240349999999992     46.211349999999989
C      47.538150000000009     49.043450000000007     49.711791999999996
C      49.723350000000003     47.794650000000004     48.241049999999994
C      45.987050000000004     48.042949999999990     46.361049999999999
C      46.947450000000011     47.109749999999991     45.677549999999989
C      48.828949999999999     48.797449999999998     50.297400000000003
C      49.985950000000010     48.246549999999999     49.594636000000001
H      45.164549999999998     49.425449999999998     48.040849999999999
H      48.955750000000002     46.537549999999996     45.701749999999997
H      46.783650000000002     49.462450000000004     50.310810000000004
H      50.587550000000000     47.318749999999994     47.691849999999995
H      45.246350000000000     47.970649999999992     45.524449999999995
H      46.766350000000010     46.624549999999999     44.764649999999996
H      48.646750000000004     49.094850000000008     51.235350000000004
H      50.835450000000002     48.118449999999996     50.154480000000000
