18

C      47.529749999999993     48.306149999999988     47.513649999999991
C      48.913249999999998     48.148849999999996     48.267650000000003
C      47.960850000000001     48.288049999999991     46.194450000000003
C      50.192850000000000     47.539349999999992     47.840650000000004
C      46.205249999999999     48.633049999999990     48.153950000000002
C      48.759149999999998     48.312350000000002     49.753050000000002
C      50.192349999999998     47.267949999999992     46.365549999999999
C      49.326250000000009     48.022749999999995     45.605350000000001
C      46.481550000000006     49.112949999999991     49.433450000000008
C      47.708350000000003     48.978549999999991     50.371349999999993
H      46.959650000000003     48.478850000000001     45.699750000000002
H      50.581650000000003     46.728449999999995     48.577950000000001
H      45.265149999999998     48.753650000000000     47.494850000000000
H      49.576750000000011     47.937750000000001     50.407349999999994
H      50.734850000000002     46.448850000000000     45.638750000000002
H      49.477850000000011     47.839549999999996     44.486649999999997
H      45.521950000000004     49.551150000000000     49.858750000000001
H      47.574150000000003     49.302249999999994     51.513350000000003
