18

C      47.782449999999997     47.317499999999995     48.158899999999988
C      48.174249999999994     48.601800000000004     47.595399999999998
C      46.530850000000001     46.632500000000000     48.218299999999999
C      47.009750000000004     49.122899999999994     46.953400000000002
C      48.966250000000009     46.794000000000004     48.955199999999991
C      49.437850000000005     49.372800000000005     47.690200000000004
C      45.322650000000003     47.236499999999999     47.623499999999993
C      45.799750000000003     48.469799999999999     46.937299999999993
C      50.143750000000004     47.542400000000008     49.015799999999999
C      50.540450000000000     48.714199999999998     48.249700000000004
H      46.437150000000003     45.600400000000000     48.487899999999996
H      46.711150000000004     50.068599999999996     46.657799999999995
H      48.995850000000011     45.687900000000006     49.375000000000000
H      49.623950000000001     50.399600000000000     47.241100000000003
H      44.398750000000000     46.705800000000004     47.487099999999998
H      45.043350000000004     49.044699999999999     46.502899999999997
H      51.021449999999994     47.242300000000007     49.497100000000003
H      51.601250000000000     49.038400000000003     47.850700000000003
