18

C      48.411399999999993     47.740599999999993     47.310349999999993
C      47.337900000000005     48.515500000000003     48.024249999999995
C      48.362800000000000     46.448200000000000     48.042149999999992
C      46.723799999999997     48.085899999999995     49.353549999999998
C      49.173500000000004     48.114599999999996     46.098749999999995
C      47.156500000000001     49.863100000000003     47.570049999999995
C      47.780600000000000     45.811599999999999     49.221750000000000
C      47.148499999999999     46.890500000000003     49.976149999999990
C      48.895899999999997     49.453800000000001     45.713349999999991
C      47.994399999999999     50.246499999999997     46.496549999999999
H      49.075499999999991     45.672200000000004     47.661649999999995
H      46.299199999999999     48.890599999999999     49.816949999999991
H      49.700800000000001     47.289500000000004     45.625349999999997
H      46.527100000000004     50.483400000000003     48.106349999999992
H      48.049199999999999     44.737700000000004     49.402649999999994
H      46.976199999999999     46.831099999999999     50.999549999999999
H      49.410300000000007     49.932599999999994     45.000450000000001
H      48.199600000000004     51.262299999999996     46.093049999999991
