18

C      49.064799999999991     48.453399999999995     48.636999999999993
C      48.142299999999999     48.203800000000001     47.556800000000003
C      49.917200000000001     47.091200000000001     48.655500000000004
C      48.118900000000004     47.075099999999992     46.514400000000002
C      48.619999999999997     49.462699999999998     49.642400000000009
C      46.610599999999998     48.533000000000001     47.651900000000005
C      49.842099999999995     46.012000000000000     47.744700000000002
C      49.111799999999995     46.062200000000004     46.411999999999999
C      47.321899999999999     49.984799999999993     49.603099999999998
C      46.267900000000004     49.427300000000002     48.576300000000003
H      50.661700000000003     46.724899999999991     49.325000000000003
H      47.177199999999999     46.975999999999999     45.749300000000005
H      49.235700000000001     49.404499999999999     50.353999999999999
H      46.049500000000002     48.281800000000004     46.873100000000001
H      50.603500000000004     45.145799999999994     47.727899999999998
H      49.015000000000001     45.111300000000000     45.646000000000001
H      47.289200000000001     50.888700000000000     50.217600000000004
H      45.338299999999997     50.017200000000003     48.695300000000003
