13

C      49.738999999999997     48.601349999999996     47.989449999999998
C      46.019199999999998     48.688050000000004     47.909250000000000
C      47.197600000000008     47.627650000000003     47.576450000000001
C      48.603200000000001     47.666249999999998     48.413349999999994
H      46.657899999999998     46.663350000000001     47.845850000000006
H      50.563699999999997     48.337550000000000     48.807450000000003
H      49.902200000000008     49.302350000000011     47.191650000000003
H      46.906500000000008     49.336649999999999     48.186950000000010
H      45.475999999999999     49.026150000000008     46.962650000000004
H      47.536000000000001     47.466250000000002     46.533450000000002
H      45.436300000000003     48.165550000000003     48.871549999999999
H      48.589500000000001     47.480449999999998     49.466549999999998
H      48.761099999999999     46.722149999999999     47.820750000000004
