18

C      48.229239999999990     48.632749999999987     48.352949999999993
C      47.628989999999995     47.247349999999997     48.116149999999998
C      49.525299999999994     48.688350000000000     48.146250000000002
C      48.671739999999993     46.247349999999997     47.755249999999997
C      47.454849999999993     49.717150000000004     48.761649999999996
C      46.198979999999992     47.245450000000005     48.207349999999998
C      50.632809999999999     47.707250000000002     47.915749999999996
C      50.186879999999995     46.395049999999998     47.691650000000003
C      45.969949999999997     49.653850000000006     48.621350000000000
C      45.257989999999992     48.372950000000003     48.285450000000004
H      49.845169999999996     49.701949999999997     48.346150000000002
H      48.772629999999999     45.137050000000002     47.703350000000000
H      47.904609999999998     50.862949999999998     48.816949999999999
H      45.563169999999992     46.377750000000006     47.943249999999999
H      51.773490000000002     47.857349999999997     47.973450000000000
H      50.720660000000002     45.492750000000001     47.183050000000001
H      45.495509999999996     50.799650000000000     48.710549999999998
H      44.226509999999998     48.075649999999996     48.333950000000002
