18

C      47.988549999999989     47.295359999999981     47.399499999999996
C      48.172949999999993     48.299959999999999     48.532499999999999
C      48.686749999999996     46.048659999999998     47.166899999999998
C      47.862850000000002     49.685434999999998     48.588099999999997
C      46.749450000000003     47.895059999999987     46.658400000000000
C      49.111349999999995     47.877159999999989     49.429100000000005
C      49.811249999999994     45.891059999999996     48.065500000000000
C      49.934649999999998     46.648959999999988     49.298200000000008
C      46.014649999999996     49.074356999999992     46.957599999999999
C      46.735850000000006     50.136470000000003     47.781400000000005
H      48.740149999999993     45.585459999999998     46.277000000000001
H      48.145850000000003     50.376759999999990     49.306600000000003
H      46.346150000000002     47.433659999999989     45.860399999999998
H      49.403849999999998     48.565159999999992     50.139600000000002
H      50.374850000000002     44.916860000000000     48.009299999999996
H      50.604549999999996     46.540959999999998     49.924500000000009
H      45.395450000000004     49.494581000000011     46.216700000000003
H      46.234050000000003     51.083140000000000     47.735100000000003
