43

C      46.830299999999987     46.039194999999992     50.151609999999998
C      47.068399999999997     45.414594999999998     48.798710000000007
C      48.114999999999995     51.580495000000006     50.870810000000006
C      48.677800000000005     51.987195000000000     49.574220000000004
C      48.969300000000004     50.869594999999997     47.369400000000006
C      47.090900000000005     47.462595000000000     50.230210000000000
C      47.645200000000003     46.166694999999997     47.674960000000006
C      47.774599999999992     50.065594999999995     50.744860000000003
C      49.258200000000002     48.972394999999999     45.576070000000001
C      48.428799999999995     50.877995000000006     48.724500000000006
C      47.637100000000004     48.346795000000007     49.088130000000007
C      47.989099999999993     47.571194999999996     47.888710000000003
C      47.681399999999996     49.731895000000002     49.448770000000003
C      48.515000000000001     48.349494999999997     46.736830000000005
C      48.671599999999998     49.732695000000000     46.654750000000007
C      46.997299999999996     47.969895000000001     51.608180000000004
C      47.339799999999997     49.349094999999998     51.939030000000002
C      48.204899999999995     45.287195000000004     46.597700000000003
C      49.582800000000006     49.482695000000000     44.330560000000006
C      46.344099999999997     45.093125000000001     51.193660000000008
C      46.249600000000001     43.605364999999999     50.867649999999998
C      46.569500000000005     43.223875000000000     49.655350000000006
C      47.213899999999995     43.902435000000004     48.576200000000007
C      46.409800000000004     45.448495000000001     52.513120000000001
C      46.894700000000000     46.892294999999997     52.772250000000000
C      48.211399999999998     43.747005000000001     46.508170000000007
C      49.351100000000002     53.355794999999993     48.801290000000009
H      47.986499999999992     52.356794999999998     51.671370000000010
H      49.426999999999992     51.791995000000000     46.892960000000002
H      47.613900000000001     49.763595000000002     52.987050000000004
H      45.751900000000006     43.044975000000001     51.705570000000009
H      46.351900000000001     42.079805000000000     49.408210000000004
H      46.623699999999999     47.336594999999996     53.672449999999998
H      46.286199999999994     44.555284999999998     53.217650000000006
H      47.939099999999996     46.328695000000003     53.084150000000008
H      49.057100000000005     45.867094999999999     46.113560000000007
H      48.642899999999997     43.218175000000002     45.663590000000006
H      49.624099999999999     53.920195000000000     49.807340000000003
H      48.642499999999998     53.807295000000003     48.126360000000005
H      50.248099999999994     53.119494999999993     48.151040000000009
H      49.787099999999995     49.541095000000006     42.327550000000002
N      47.941900000000004     43.046734999999998     47.668630000000007
O      50.119600000000005     49.931694999999998     43.254583000000004
