18

C      47.508899999999990     47.143249999999995     48.205449999999999
C      47.666499999999999     48.651650000000004     48.509050000000002
C      46.933800000000005     46.875750000000004     46.947749999999999
C      46.930000000000000     49.589949999999995     47.889250000000004
C      48.663699999999992     46.144750000000002     48.469750000000005
C      48.573999999999998     48.815250000000013     49.604249999999993
C      46.363700000000001     47.965550000000000     46.214150000000004
C      46.185500000000005     49.321649999999998     46.616550000000004
C      49.554999999999993     46.480150000000002     49.501649999999998
C      49.630000000000003     47.918150000000004     49.900549999999996
H      46.904000000000003     45.933650000000007     46.549250000000001
H      46.639700000000005     50.608449999999998     48.365150000000000
H      48.526100000000000     45.391550000000002     47.764849999999996
H      48.916600000000003     49.840250000000005     50.073049999999995
H      45.760300000000001     47.823850000000000     45.256150000000005
H      45.733699999999999     50.263850000000012     46.288650000000004
H      50.170699999999997     45.815750000000001     50.079849999999993
H      50.266300000000001     48.278650000000006     50.743849999999995
