60

C      46.448749999999990     50.603999999999992     53.692049999999995
C      49.177650000000007     46.804900000000004     46.092950000000002
C      49.999150000000000     47.139600000000002     47.422150000000002
C      45.607450000000000     49.115499999999997     48.875150000000005
C      46.202749999999995     49.029100000000000     50.203749999999999
C      47.956049999999998     47.463099999999997     46.250550000000004
C      49.499950000000005     47.531900000000007     48.615650000000002
C      46.040250000000000     48.626900000000006     47.475250000000003
C      47.576050000000002     48.386099999999999     50.120549999999994
C      47.374049999999997     48.100000000000009     47.512749999999997
C      48.211549999999995     48.135700000000000     48.760949999999994
C      49.845149999999997     46.307699999999997     45.039349999999999
C      51.341349999999998     45.994100000000003     44.964449999999999
C      52.135349999999995     46.195000000000007     46.172950000000000
C      51.452050000000007     46.849299999999999     47.461349999999996
C      44.326549999999997     49.889300000000006     48.771050000000002
C      44.001749999999994     50.765100000000004     49.989050000000006
C      44.483049999999999     50.425600000000003     51.216949999999997
C      45.810049999999997     49.727199999999996     51.408349999999999
C      49.015149999999998     46.267899999999997     43.746349999999993
C      49.672050000000006     45.567900000000009     42.568849999999998
C      51.023150000000008     45.411000000000001     42.409449999999993
C      51.916850000000004     45.581600000000009     43.691249999999997
C      47.603649999999995     46.681600000000003     43.877449999999996
C      47.044249999999998     47.439900000000009     45.102649999999997
C      45.970949999999995     48.496499999999997     44.877250000000004
C      45.441449999999996     49.203400000000002     46.179249999999996
C      43.364649999999997     49.389499999999998     47.756850000000000
C      44.002249999999997     49.692099999999996     46.416749999999993
C      42.923749999999998     49.298600000000008     45.353449999999995
C      44.965049999999998     50.782200000000003     45.974850000000004
C      53.368749999999999     47.030100000000004     46.003349999999998
C      51.915250000000000     45.048000000000002     47.120350000000002
C      46.627749999999999     49.372300000000010     52.657650000000004
H      46.834449999999997     51.443300000000008     53.383650000000003
H      45.425149999999995     51.034100000000009     53.937849999999997
H      46.765349999999998     50.323800000000006     54.721450000000004
H      43.310849999999995     49.899900000000002     44.430350000000004
H      50.090449999999997     47.582800000000006     49.627449999999996
H      48.480950000000000     48.293199999999999     50.671250000000001
H      43.124350000000000     51.336100000000002     49.954049999999995
H      43.913049999999998     50.895600000000002     52.093149999999994
H      49.295949999999998     45.465500000000006     41.413049999999998
H      51.242650000000005     45.205600000000004     41.278549999999996
H      52.814149999999998     45.404700000000005     43.408749999999998
H      47.048849999999995     46.949200000000005     43.061149999999998
H      42.348749999999995     49.408799999999999     48.034449999999993
H      43.316549999999999     48.035600000000002     45.501549999999995
H      41.844850000000001     49.423900000000003     45.725350000000006
H      45.210949999999997     51.383099999999999     45.109049999999996
H      44.746049999999997     51.465699999999998     46.971750000000000
H      54.120149999999995     46.709200000000010     46.750850000000000
H      53.194949999999999     48.026700000000005     45.862250000000003
H      54.155149999999999     46.583500000000001     45.161649999999995
H      52.839149999999997     44.663100000000000     47.494550000000004
H      51.869949999999996     47.557100000000005     48.163250000000005
H      51.054449999999996     44.534300000000002     46.940650000000005
H      47.552249999999994     48.872300000000010     52.647449999999992
H      46.102649999999997     48.554400000000001     53.033349999999999
O      45.142949999999999     48.344300000000004     44.032150000000001
