18

C      48.508299999999991     48.504649999999998     47.984174999999993
C      47.487899999999996     47.483050000000006     48.115565000000004
C      48.799599999999998     49.263549999999995     49.238644999999991
C      47.143500000000003     47.065650000000005     49.461314999999999
C      48.998499999999993     48.952650000000006     46.605724999999993
C      46.941999999999993     46.879950000000008     46.912424999999999
C      48.148799999999994     49.068950000000001     50.532295000000005
C      47.283900000000003     47.997650000000007     50.505694999999989
C      48.294399999999996     48.462750000000000     45.455605000000006
C      47.357100000000003     47.313649999999996     45.591215000000005
H      49.674199999999999     49.866249999999994     48.968924999999999
H      46.682800000000000     46.133750000000006     49.569284999999994
H      49.912999999999997     49.418949999999995     46.584244999999996
H      46.087000000000003     46.249949999999998     47.218045000000004
H      48.434399999999997     49.561450000000008     51.381995000000003
H      46.782399999999996     47.677549999999997     51.564194999999998
H      48.762100000000004     48.837649999999996     44.435805000000002
H      47.199799999999996     46.596149999999994     44.854145000000003
