18

C      48.794199999999996     48.019899999999993     47.158999999999999
C      47.694900000000004     47.956499999999991     48.287000000000006
C      49.147400000000005     46.762400000000000     46.550400000000003
C      47.596999999999994     46.748300000000000     49.075000000000003
C      49.184899999999999     49.413699999999992     46.839500000000001
C      47.100800000000007     49.180800000000005     48.798100000000005
C      49.135800000000003     45.635899999999992     47.337599999999995
C      48.357699999999994     45.616900000000001     48.576999999999998
C      48.842200000000005     50.402999999999992     47.643000000000001
C      47.613500000000002     50.504800000000003     48.457900000000002
H      49.950699999999998     46.580100000000002     45.902600000000007
H      47.194400000000002     46.820099999999996     50.097399999999993
H      49.709900000000005     49.483999999999995     45.912400000000005
H      46.049300000000002     49.278499999999994     49.232200000000006
H      49.562200000000004     44.646699999999996     46.843200000000003
H      48.123599999999996     45.021400000000000     49.542599999999993
H      49.004099999999994     51.346999999999994     47.518600000000006
H      47.048600000000008     51.353300000000004     48.824600000000004
