18

C      48.595049999999993     47.693999999999996     47.774149999999992
C      48.048349999999999     48.722099999999998     48.694450000000003
C      48.693449999999999     46.265900000000002     48.189050000000002
C      47.524150000000006     48.378999999999991     49.938749999999999
C      48.983550000000008     47.926199999999994     46.407750000000000
C      47.847149999999999     50.007799999999989     48.161750000000005
C      48.477850000000004     45.811999999999998     49.481349999999999
C      47.940650000000005     46.959400000000002     50.223750000000003
C      48.461650000000006     49.188299999999998     45.835050000000003
C      48.108450000000005     50.356399999999994     46.789349999999999
H      48.777749999999997     45.685299999999998     47.341450000000002
H      46.902749999999997     48.975699999999989     50.576150000000005
H      49.097250000000003     46.970299999999995     45.600549999999998
H      47.321550000000002     50.822899999999990     48.713249999999995
H      48.620850000000004     44.924199999999999     49.782750000000000
H      47.479150000000004     46.619699999999995     51.219850000000001
H      48.520350000000008     49.182299999999998     44.780149999999999
H      47.372150000000005     51.075800000000001     46.521949999999997
