5

C      47.838379999999994     47.916749999999986     48.163249999999998
H      47.955610000000000     48.533850000000001     47.273449999999997
H      47.184049999999999     47.054850000000002     48.621150000000000
H      47.287590000000002     48.945149999999998     48.501050000000006
H      48.815950000000001     48.013049999999993     48.726550000000003
