18

C      47.481939999999994     47.945699999999988     48.066929999999985
C      48.813468000000007     48.489499999999992     48.524130000000000
C      46.538940000000004     48.517899999999997     47.160359999999997
C      49.279253000000011     49.706299999999999     47.784430000000000
C      46.701640000000005     46.811700000000002     48.661529999999999
C      49.524435000000011     47.490399999999994     49.406130000000005
C      47.230240000000002     49.534399999999991     46.340379999999996
C      48.646040000000006     49.985500000000002     46.484579999999994
C      47.404140000000005     46.137999999999991     49.747230000000002
C      48.809571000000012     46.395899999999997     50.008629999999997
H      45.436540000000001     48.018600000000006     46.864679999999993
H      50.191610000000011     50.176900000000003     47.926630000000003
H      45.681339999999999     46.589500000000001     48.491529999999997
H      50.563459999999999     47.756900000000002     49.612529999999992
H      46.870939999999997     49.711400000000012     45.254269999999991
H      48.850085000000007     50.722000000000008     45.585970000000003
H      46.965740000000004     45.277999999999992     50.336529999999996
H      49.381678000000015     45.678699999999992     50.745730000000009
