8

C      47.918899999999994     47.159949999999995     48.360099999999989
C      48.004500000000000     48.808050000000001     48.096800000000002
H      47.017900000000004     46.920150000000000     48.916600000000003
H      47.832299999999996     46.689850000000000     47.434200000000004
H      48.717199999999998     46.749250000000004     48.697299999999998
H      47.750200000000000     48.801650000000002     47.083399999999997
H      47.026900000000005     49.310150000000000     48.532899999999998
H      48.982099999999996     48.946150000000010     48.117000000000004
