18

C      48.033349999999999     48.022699999999993     47.044799999999995
C      47.584750000000000     48.340400000000002     48.360800000000005
C      48.044650000000011     46.573000000000000     46.842400000000005
C      47.384950000000003     47.204499999999996     49.360199999999999
C      48.926550000000006     49.048400000000001     46.452400000000004
C      47.319050000000004     49.606300000000005     48.986100000000000
C      47.258050000000004     45.572600000000001     47.540700000000008
C      46.843950000000000     45.997500000000002     48.798000000000009
C      48.741049999999994     50.297299999999993     46.993800000000000
C      47.837949999999999     50.617000000000004     48.083000000000006
H      48.353550000000006     46.452200000000005     45.758200000000009
H      47.299050000000001     47.520700000000005     50.362000000000002
H      49.641050000000000     48.784599999999998     45.637999999999998
H      47.114750000000001     49.741299999999995     49.953300000000006
H      47.188350000000000     44.472300000000004     46.936100000000003
H      46.358950000000000     45.328500000000005     49.351000000000006
H      49.309750000000001     51.230999999999995     46.574300000000001
H      47.602950000000000     51.527699999999996     48.290399999999998
