18

C      48.336299999999994     47.358300000000000     47.568654999999993
C      47.858899999999998     48.585799999999999     48.416865000000008
C      49.606499999999990     46.771800000000006     47.775145000000002
C      48.982700000000001     49.409600000000005     49.083374999999997
C      47.278500000000001     46.709700000000005     46.712434999999999
C      46.443199999999997     49.032100000000007     48.602834999999999
C      50.477800000000002     47.810099999999998     48.259664999999998
C      50.314199999999992     49.041300000000000     49.016484999999996
C      45.916300000000000     47.177700000000009     47.052635000000002
C      45.516199999999998     48.122400000000006     48.032914999999996
H      49.955500000000008     45.887599999999999     47.263084999999997
H      48.677600000000005     50.235199999999999     49.749614999999999
H      47.321500000000000     45.764800000000001     46.250385000000001
H      46.138999999999996     49.820600000000006     49.228434999999998
H      51.559800000000003     47.877299999999998     48.139825000000002
H      51.135500000000000     49.385300000000008     49.682484999999993
H      45.286400000000000     46.219600000000007     46.673285000000000
H      44.440199999999997     47.816099999999999     48.114775000000002
