58

C      44.323099999999997     46.263700000000000     49.575149999999987
C      45.108199999999997     44.183499999999995     47.896450000000002
C      48.537199999999999     51.173100000000005     45.321950000000001
C      49.902299999999997     50.995800000000003     46.074250000000006
C      44.059799999999996     45.031500000000008     48.490650000000002
C      46.445399999999992     44.930800000000005     47.757549999999995
C      49.020499999999998     52.995800000000003     50.845450000000000
C      50.485299999999995     51.387600000000006     47.310550000000006
C      46.106200000000001     47.613500000000002     50.571950000000001
C      47.882400000000004     46.859200000000001     48.421049999999994
C      48.836799999999997     51.769800000000004     51.530950000000004
C      47.792400000000001     49.512799999999999     51.374849999999995
C      48.954999999999998     49.098399999999998     48.790750000000003
C      45.707399999999993     46.486000000000004     49.645250000000004
C      46.861199999999997     45.976500000000001     48.766750000000002
C      49.719999999999999     52.677800000000005     49.509649999999993
C      47.349500000000006     48.278999999999996     50.536249999999995
C      47.950500000000005     48.106099999999998     49.204449999999994
C      48.371700000000004     50.545500000000004     50.796149999999997
C      49.736499999999992     51.615800000000007     48.690849999999998
C      49.127200000000002     50.424700000000001     49.458150000000003
C      50.899599999999992     50.199799999999996     46.805650000000000
C      50.013899999999992     49.038899999999998     47.638850000000005
C      50.010599999999997     47.793099999999995     47.077449999999999
C      48.835899999999995     46.933700000000002     47.214150000000004
C      48.360299999999995     45.810000000000002     46.383449999999996
C      47.324299999999994     44.768000000000001     46.636250000000004
C      44.564799999999991     43.600400000000008     49.124049999999997
C      44.784199999999998     42.649200000000008     47.948049999999995
C      47.246399999999994     51.777600000000007     45.851650000000006
C      51.893100000000004     46.963400000000007     47.130150000000000
C      52.115099999999998     50.916699999999992     47.340549999999993
C      48.173699999999997     52.496700000000004     44.687449999999998
C      48.351600000000005     49.873199999999997     44.478449999999995
H      43.062799999999996     44.512100000000004     48.370249999999999
H      45.239900000000006     47.557199999999995     51.236249999999998
H      48.592399999999998     51.765000000000001     52.366450000000000
H      50.298899999999989     53.677400000000006     49.205950000000001
H      47.210299999999989     49.709699999999998     52.383150000000001
H      48.791099999999986     45.746899999999997     45.298249999999996
H      45.491699999999994     43.486800000000002     50.088849999999994
H      43.880200000000002     42.179500000000004     47.484949999999998
H      45.693499999999986     42.046000000000006     47.910550000000001
H      46.388999999999996     51.067499999999995     45.327950000000001
H      46.917900000000003     52.451300000000003     46.770750000000007
H      52.813900000000004     47.499099999999999     47.582449999999994
H      52.295299999999997     45.824600000000004     47.173850000000002
H      52.401199999999989     51.921199999999999     46.996150000000000
H      46.830900000000000     44.189800000000005     45.983649999999997
H      48.099900000000005     53.549000000000007     45.003850000000000
H      48.228899999999996     52.274799999999999     43.616849999999999
H      47.422299999999993     49.390400000000000     44.231150000000000
H      48.908699999999996     49.162999999999997     45.277649999999994
H      49.159999999999997     49.887900000000002     43.632549999999995
H      52.937200000000004     50.258300000000006     47.883250000000004
O      43.479500000000002     46.673200000000008     50.396950000000004
O      51.020399999999995     47.213600000000000     46.226349999999996
O      48.480800000000002     53.953999999999994     51.239549999999994
