101

C      51.563049999999990     53.393249999999995     48.663639999999980
C      47.801649999999995     42.660649999999997     46.419089999999990
C      48.733549999999994     43.819049999999997     46.802129999999991
C      50.228650000000002     42.697550000000000     42.292800000000000
C      47.544150000000002     42.168749999999996     45.094299999999976
C      49.629750000000001     44.221650000000004     45.797217999999987
C      49.075249999999997     41.997549999999997     43.011100000000013
C      50.276150000000001     43.986650000000004     43.142899999999997
C      48.694649999999996     42.457749999999997     44.187200000000004
C      49.495750000000001     43.663249999999998     44.515500000000010
C      46.589449999999999     42.995650000000005     48.559579999999990
C      45.183449999999993     42.946149999999996     49.112279999999998
C      47.735249999999994     43.818350000000002     49.147250000000000
C      48.804149999999993     44.067850000000000     48.287679999999988
C      46.685149999999993     42.192450000000001     47.350999999999992
C      45.597549999999998     41.629249999999999     46.581149999999987
C      44.289150000000006     41.595649999999999     47.002939999999988
C      44.149450000000002     42.488450000000000     48.245989999999992
C      44.640550000000005     40.228149999999999     46.392649999999989
C      51.408349999999999     41.816849999999995     41.749100000000006
C      49.677350000000004     43.832749999999997     41.598699999999980
C      44.569550000000007     41.660850000000003     49.576809999999995
C      48.925849999999997     51.824750000000002     51.559349999999981
C      47.851650000000006     51.746050000000004     50.458599999999990
C      48.140150000000006     47.105049999999999     52.632859999999987
C      46.984549999999999     47.208350000000003     51.719989999999996
C      49.550349999999995     50.800750000000001     52.343359999999990
C      47.396550000000005     50.439650000000000     49.984759999999987
C      48.938450000000003     48.278250000000000     52.764959999999988
C      46.528149999999997     48.355849999999997     50.863389999999995
C      48.613749999999996     49.573349999999998     52.135209999999987
C      47.514250000000004     49.472749999999998     51.164309999999986
C      49.327349999999996     53.287050000000001     51.345889999999990
C      47.044349999999994     54.153050000000000     51.120139999999992
C      48.437550000000002     54.380850000000002     50.854719999999986
C      47.229349999999997     53.081550000000000     50.094739999999987
C      48.121750000000006     45.578049999999998     52.938669999999988
C      47.168449999999993     44.810449999999996     52.443269999999984
C      45.131850000000000     44.022050000000000     50.322889999999987
C      46.396349999999998     45.821449999999999     51.637400000000000
C      50.640050000000002     51.140350000000005     53.206109999999995
C      50.761550000000000     52.536450000000002     53.649039999999985
C      50.443349999999995     53.657150000000001     52.243269999999988
C      46.572050000000004     50.337250000000004     48.742199999999990
C      46.313550000000006     51.664250000000003     47.918689999999991
C      50.820049999999995     53.815550000000009     50.719269999999995
C      46.529949999999999     53.936150000000005     52.419119999999992
C      45.500349999999997     54.066150000000000     48.283409999999989
C      52.189750000000004     52.830750000000002     54.352189999999993
C      50.670249999999996     50.464149999999997     54.645039999999987
C      46.284450000000007     55.358849999999997     50.858759999999990
C      45.411850000000001     45.496649999999995     50.678739999999991
H      52.642750000000007     52.950749999999999     48.768749999999983
H      50.709950000000006     52.600349999999999     48.716009999999990
H      51.560950000000005     53.865349999999999     47.696219999999990
H      46.761150000000001     41.548850000000002     44.668899999999987
H      50.464349999999996     44.929349999999999     45.887485999999988
H      48.554450000000003     41.432949999999998     42.307699999999983
H      51.156049999999993     44.696950000000001     43.325400000000002
H      47.847049999999996     44.171050000000001     50.158809999999988
H      49.649450000000002     44.710149999999999     48.591469999999987
H      43.206750000000000     43.053249999999998     48.371039999999986
H      51.122450000000001     40.813849999999995     41.934100000000008
H      51.428950000000000     42.058950000000003     40.635100000000008
H      50.569950000000006     43.939650000000000     40.895199999999988
H      48.611249999999998     44.001049999999999     41.670300000000012
H      43.588849999999994     41.677950000000003     50.261319999999984
H      44.611350000000002     40.501249999999999     49.281649999999992
H      52.132649999999998     42.289349999999999     42.236099999999993
H      50.324749999999995     54.806449999999998     52.555329999999998
H      49.779749999999993     48.047850000000004     53.452619999999982
H      45.637649999999994     48.386550000000000     50.309089999999983
H      48.440650000000005     55.423050000000003     50.713349999999991
H      48.833550000000002     45.269849999999998     53.660229999999984
H      47.174250000000001     43.820450000000001     52.617929999999987
H      44.266450000000006     43.816949999999999     50.932829999999989
H      51.637050000000002     50.847349999999999     52.903209999999987
H      50.151250000000005     52.823549999999997     54.492719999999991
H      46.582549999999998     49.570349999999998     47.974999999999987
H      45.651949999999999     49.641349999999996     49.023729999999986
H      46.933250000000001     51.693850000000005     46.930139999999987
H      45.217550000000003     51.459849999999996     47.497259999999990
H      45.461150000000004     53.855049999999999     52.584119999999999
H      46.837350000000001     54.494750000000003     53.193869999999990
H      46.630349999999993     52.937950000000001     52.898959999999988
H      44.423150000000007     53.854950000000002     48.531889999999990
H      45.402450000000002     54.107250000000001     47.110349999999990
H      52.583550000000002     53.775149999999996     53.921549999999989
H      52.793250000000000     51.901249999999997     53.879739999999991
H      52.255349999999993     52.650750000000002     55.364899999999992
H      51.458749999999995     50.349250000000005     55.286199999999994
H      49.724750000000000     50.885950000000001     55.031399999999991
H      50.071349999999995     49.536349999999999     54.606249999999989
H      45.346350000000001     55.180550000000004     50.455799999999996
H      45.858750000000001     55.081850000000010     48.852549999999987
H      46.780349999999999     56.466749999999998     50.728429999999989
H      44.588549999999998     46.227950000000000     50.208319999999986
H      45.791950000000000     43.201850000000000     50.646469999999979
N      46.359049999999996     52.896149999999999     48.800179999999997
O      44.443950000000001     39.533250000000002     45.501830999999989
O      51.368250000000003     54.534450000000000     49.928309999999989
