11

C      47.227699999999992     47.619849999999992     48.892749999999999
C      47.868000000000002     48.501950000000008     47.691550000000007
C      48.954599999999999     47.705050000000000     46.700850000000003
H      47.666100000000000     47.938350000000000     49.956450000000004
H      46.227400000000003     47.319749999999999     48.879249999999999
H      48.435299999999998     49.420749999999998     48.221750000000000
H      46.992600000000003     48.964849999999998     47.051550000000006
H      49.772599999999997     47.871549999999999     46.043549999999996
H      49.758399999999995     47.146050000000002     47.310850000000002
H      48.416499999999999     46.860349999999997     46.308450000000008
H      47.680900000000008     46.579250000000002     48.566950000000006
