42

C      47.362449999999988     48.971039999999988     48.666849999999990
C      48.452749999999995     49.400679999999994     47.817749999999997
C      52.039349999999999     47.548439999999999     50.542850000000001
C      51.339550000000003     49.003510000000006     50.192650000000000
C      47.545450000000002     48.579939999999993     50.072350000000000
C      49.740750000000006     49.541290000000004     48.205849999999998
C      50.018550000000005     48.981589999999997     49.591149999999999
C      49.147350000000003     47.941749999999999     51.819649999999996
C      49.038449999999997     48.640360000000001     50.662350000000004
C      46.216049999999996     48.058869999999999     50.080349999999996
C      45.778850000000006     49.595020000000005     46.552349999999997
C      46.125649999999993     48.868020000000001     47.950949999999999
C      45.273650000000004     48.425730000000001     49.023750000000007
C      53.134950000000003     46.468369999999993     46.316150000000000
C      53.134649999999993     47.041610000000006     47.510649999999998
C      52.007649999999998     47.907060000000001     47.851749999999996
C      52.139650000000003     48.384950000000003     49.254249999999999
C      46.433149999999998     49.951899999999995     45.236649999999997
C      45.331649999999996     50.076260000000005     44.295649999999995
C      44.065849999999998     50.194470000000010     44.922950000000000
C      44.372550000000004     49.736540000000005     46.342149999999997
C      52.186049999999994     49.926040000000000     49.533149999999999
C      42.744249999999994     50.229839999999996     43.982450000000000
C      53.753450000000001     45.853960000000001     47.583050000000000
H      51.202050000000000     46.846469999999997     50.540350000000004
H      50.281549999999996     50.276709999999994     47.809449999999998
H      44.249549999999999     48.172409999999999     49.104149999999997
H      48.105850000000004     49.801040000000000     46.855950000000000
H      52.178049999999999     46.073580000000007     46.045549999999999
H      51.588350000000005     48.509259999999998     46.971649999999997
H      45.808049999999994     47.412059999999997     50.967449999999999
H      45.417349999999999     50.248210000000000     43.194550000000000
H      43.633449999999996     49.509270000000001     47.010749999999994
H      47.549350000000004     50.086240000000004     45.187249999999999
H      52.887749999999997     50.261930000000007     50.381450000000001
H      51.522649999999999     50.755060000000000     49.399349999999998
H      42.003850000000000     50.625670000000000     44.642150000000001
H      43.079949999999997     50.894829999999999     43.230149999999995
H      42.545450000000002     49.158519999999996     43.446649999999998
H      53.996150000000000     45.105170000000001     48.298949999999998
H      52.806049999999999     47.631010000000003     51.512149999999998
O      48.929950000000005     47.383579999999995     52.805450000000000
