18

C      47.945599999999999     48.145949999999992     47.039949999999997
C      48.096800000000002     47.408250000000002     48.521250000000009
C      46.649299999999997     48.635850000000005     46.616650000000007
C      46.900100000000009     47.044250000000005     49.056350000000009
C      49.181500000000000     48.511049999999997     46.434950000000001
C      49.411100000000005     47.573850000000000     49.153150000000011
C      45.496200000000002     48.173450000000003     47.409649999999999
C      45.585400000000007     47.086250000000000     48.270350000000008
C      50.469399999999993     48.037550000000003     46.840250000000012
C      50.491500000000002     47.478750000000005     48.133050000000011
H      46.505899999999997     49.242249999999999     45.699950000000001
H      46.547899999999998     46.796250000000001     50.012250000000009
H      49.159300000000002     49.406450000000000     45.747550000000004
H      49.566299999999998     47.414149999999999     50.300049999999999
H      44.475000000000009     48.149850000000001     46.922250000000005
H      44.771600000000007     46.593550000000000     48.795349999999999
H      51.415800000000004     48.477850000000004     46.571750000000009
H      51.524999999999991     47.173749999999998     48.487350000000006
