5

C      48.208054999999987     48.378099999999989     47.925699999999992
H      48.560034999999999     48.762699999999995     48.965699999999998
H      48.143895000000001     47.237300000000005     48.058999999999997
H      47.183745000000002     48.639600000000002     47.387400000000000
H      48.816254999999998     48.253200000000007     47.034300000000002
