14

C      46.836149999999996     50.912149999999997     46.209499999999991
C      46.960450000000009     47.923950000000005     49.486699999999992
C      46.096750000000000     49.154850000000003     49.092999999999996
C      47.793250000000000     46.749150000000000     49.599399999999996
C      46.869450000000001     50.206550000000000     48.341900000000003
C      47.419750000000008     49.325749999999999     49.378399999999992
C      49.051950000000005     47.205850000000005     50.079299999999996
C      47.631350000000012     45.143250000000002     49.586300000000001
H      46.819350000000000     51.276850000000003     48.720999999999997
H      48.096250000000012     44.540250000000000     48.788400000000003
O      46.666550000000001     51.760950000000001     45.317399999999999
O      47.327650000000006     50.014249999999997     46.901899999999991
O      49.903250000000000     47.672050000000006     50.682600000000001
S      46.290950000000009     44.239049999999999     50.147699999999993
