18

C      47.294149999999988     47.385699999999993     47.758399999999995
C      48.575850000000003     48.144390000000001     48.333999999999996
C      47.681049999999999     46.162880000000001     47.130199999999995
C      49.895950000000013     47.570620000000005     48.350800000000000
C      45.933149999999998     47.689489999999992     48.103999999999992
C      48.431850000000011     49.536559999999994     48.960699999999996
C      49.076550000000012     45.659710000000004     47.156699999999994
C      50.271749999999997     46.271799999999999     47.605599999999988
C      45.872850000000000     48.966099999999997     48.815700000000000
C      47.062349999999995     49.835670000000000     49.160399999999989
H      46.875749999999996     45.545389999999998     46.622899999999994
H      50.872349999999997     48.242780000000003     48.330599999999997
H      45.113150000000005     46.968429999999998     47.844099999999990
H      49.210549999999998     49.999360000000003     49.557200000000002
H      49.524650000000008     45.201610000000002     46.280600000000000
H      51.273150000000001     45.841639999999998     47.134499999999996
H      44.726849999999999     49.252789999999997     48.805199999999992
H      47.082149999999999     50.798389999999998     49.719400000000000
