18

C      48.325699999999991     48.410049999999998     48.419749999999986
C      47.555399999999999     47.498550000000002     47.538549999999994
C      48.200699999999998     48.424849999999999     49.914349999999999
C      46.523699999999998     46.811550000000004     48.210749999999997
C      49.420400000000001     49.141449999999999     47.677849999999992
C      47.927999999999997     47.250450000000001     46.208749999999995
C      47.246299999999998     47.542549999999999     50.452749999999995
C      46.337599999999995     46.901550000000000     49.605749999999993
C      49.625599999999991     48.974550000000001     46.148149999999994
C      48.946899999999999     48.107050000000001     45.388149999999996
H      48.809799999999996     49.337050000000012     50.199550000000002
H      45.922699999999999     46.256650000000000     47.594349999999991
H      50.325100000000006     49.528649999999992     48.138749999999995
H      47.417600000000000     46.567750000000004     45.491449999999993
H      47.305799999999998     47.632850000000005     51.575050000000005
H      45.555300000000003     46.220750000000002     49.930449999999993
H      50.444699999999997     49.779249999999998     45.842449999999992
H      48.890900000000002     47.918450000000000     44.424949999999995
