117

C      40.460099999999990     55.745249999999992     45.691769999999991
C      39.305399999999999     56.342950000000002     46.524970000000003
C      42.428200000000004     55.530450000000002     50.458540000000006
C      43.113399999999999     54.408850000000001     49.655417000000007
C      41.550300000000007     55.112849999999995     46.344670000000001
C      39.492600000000003     56.201549999999997     47.943069999999999
C      42.896100000000004     54.433250000000001     48.246469999999995
C      41.153899999999993     56.166049999999998     49.881081999999999
C      41.706099999999992     55.158850000000001     47.782670000000003
C      40.705500000000001     55.921549999999996     48.503970000000002
C      40.192500000000003     56.345249999999993     44.426569999999991
C      38.863799999999998     57.035650000000004     44.298669999999994
C      38.409399999999998     57.082949999999997     45.626669999999997
C      42.830199999999998     56.501449999999991     51.347760000000001
C      45.763600000000004     52.007149999999996     48.397169999999996
C      45.737000000000009     53.523550000000000     49.148569999999999
C      44.771799999999999     52.399850000000001     49.337343700000005
C      44.304400000000001     53.596450000000004     50.109235000000005
C      42.729900000000001     55.163749999999993     45.314770000000003
C      42.188000000000002     54.610849999999999     43.822470000000003
C      40.868600000000001     55.494749999999996     43.308169999999997
C      45.497399999999999     54.985649999999993     48.519269999999999
C      44.684600000000003     51.122250000000001     50.358830000000005
C      51.907900000000012     47.192349999999998     49.389005000000004
C      53.445299999999989     47.678049999999999     49.582409000000006
C      54.105000000000004     42.682549999999999     47.934469999999997
C      55.479999999999997     43.148249999999997     48.507469999999991
C      51.794400000000003     45.868949999999998     48.949869999999997
C      54.526999999999994     46.892749999999999     49.114269999999998
C      52.715400000000002     43.540749999999996     48.335670000000000
C      55.360099999999989     44.666149999999995     48.709069999999990
C      52.829299999999996     44.825249999999997     48.941569999999992
C      54.120400000000004     45.451949999999997     49.021269999999994
C      50.956399999999988     48.191549999999999     48.851570000000002
C      50.977900000000005     49.693349999999995     48.995870000000004
C      53.142000000000010     50.276249999999997     50.029331000000006
C      53.620600000000003     41.363450000000000     47.572669999999995
C      54.459200000000003     40.902049999999996     48.306869999999996
C      55.907800000000002     40.810649999999995     49.137570000000004
C      56.407900000000012     42.230950000000000     48.946970000000000
C      49.633699999999990     47.907049999999998     47.926070000000003
C      48.911200000000001     49.219049999999996     47.947169999999993
C      48.848100000000002     51.521549999999998     48.871069999999996
C      49.533400000000015     50.191049999999997     48.652070000000002
C      49.511300000000006     46.396450000000002     47.738470000000000
C      50.521400000000000     45.525250000000000     48.212569999999992
C      50.181900000000013     43.966949999999997     47.982369999999996
C      51.428600000000003     43.047249999999998     48.132069999999992
C      52.633799999999994     41.158149999999999     46.651969999999999
C      51.255000000000003     41.703049999999998     47.188269999999996
C      53.883800000000001     49.092250000000000     49.667072999999995
C      55.962100000000007     41.119349999999997     51.772120000000001
C      55.785100000000014     40.191049999999997     50.586230000000000
C      56.633400000000009     45.333549999999995     48.162169999999996
C      57.750500000000002     44.626549999999995     48.911470000000001
C      57.834899999999990     42.839349999999996     48.878769999999996
C      47.266899999999993     51.848249999999993     48.942670000000000
C      47.616900000000001     48.836050000000000     46.988170000000004
C      56.524999999999991     44.921450000000000     46.711570000000002
C      47.575699999999998     49.854149999999997     45.637869999999999
C      55.299400000000006     41.221849999999996     53.082200000000007
C      56.672000000000011     39.647549999999995     49.162669999999999
C      50.686200000000007     42.897449999999999     49.328923000000010
H      38.967900000000000     56.512249999999995     48.685470000000002
H      43.645899999999997     54.096949999999993     47.529969999999999
H      40.543400000000005     57.062150000000003     50.153584000000002
H      38.415799999999997     57.255250000000004     43.348369999999996
H      37.411500000000004     57.275750000000002     45.866570000000003
H      45.544899999999998     52.071050000000000     47.345970000000001
H      44.645300000000006     53.805350000000004     51.162680000000002
H      43.044299999999993     56.469349999999991     45.336069999999999
H      43.666300000000000     54.514949999999999     45.378070000000001
H      41.660800000000009     53.600449999999995     43.773670000000003
H      42.909000000000006     54.590750000000000     42.992269999999998
H      40.028399999999998     54.881150000000005     42.796270000000000
H      40.994699999999995     55.868549999999999     42.375369999999997
H      44.763400000000004     55.487949999999998     48.983269999999997
H      46.503300000000003     55.349549999999994     48.649070000000002
H      45.447000000000003     55.065150000000003     47.270069999999997
H      45.390699999999995     50.208749999999995     50.013075000000001
H      44.425300000000000     51.294249999999998     51.552040000000012
H      43.636899999999997     50.735450000000000     49.991899000000004
H      49.156199999999998     46.345450000000000     46.747369999999997
H      54.073299999999989     39.878650000000000     48.314370000000004
H      49.415100000000010     52.359150000000000     49.270069999999997
H      52.627800000000001     40.097349999999999     46.096370000000000
H      53.098599999999990     41.820450000000001     45.931469999999997
H      50.470400000000005     40.882050000000000     47.847769999999990
H      50.368399999999994     41.515349999999998     46.436669999999999
H      55.571900000000014     47.136249999999997     48.971769999999999
H      55.107299999999995     48.838549999999998     49.752851999999997
H      56.518899999999988     41.958449999999999     51.699050000000007
H      53.751900000000006     51.344650000000001     50.291269000000007
H      54.914399999999986     39.667349999999999     50.707780000000007
H      56.661999999999992     46.507849999999998     48.224569999999993
H      58.588499999999996     45.153250000000000     48.406969999999994
H      57.642900000000012     44.958149999999996     49.916980000000002
H      58.575800000000001     42.406349999999996     48.214369999999995
H      58.527300000000011     42.476849999999999     49.739619000000012
H      47.341200000000001     47.811050000000002     46.966569999999997
H      46.718699999999998     49.279550000000000     47.462969999999991
H      55.330599999999990     44.509349999999998     46.431570000000001
H      57.216600000000014     45.668650000000000     46.126969999999993
H      56.893999999999991     43.875850000000000     46.819470000000003
H      47.745600000000010     49.206949999999999     44.782969999999999
H      46.472800000000007     50.255150000000000     45.489969999999992
H      48.259599999999992     50.882249999999999     45.604269999999993
H      55.640499999999996     42.028050000000000     53.624630000000003
H      54.466600000000000     40.522849999999998     53.516749999999995
H      56.054500000000004     38.724249999999998     48.708369999999995
H      57.662500000000009     39.381549999999997     49.353486600000004
H      50.910299999999992     43.478149999999999     50.320160000000001
H      50.115399999999994     42.129549999999995     49.608021999999998
N      51.934400000000004     50.529249999999998     49.324567920000007
O      42.922299999999993     56.823149999999998     52.445429999999995
O      47.448999999999998     51.259049999999995     49.968499000000001
O      49.457000000000001     43.505249999999997     47.180669999999999
