41

C      48.627749999999992     46.374629999999982     49.437249999999992
C      47.878050000000002     46.598129999999991     48.039149999999992
C      48.878150000000005     49.210129999999999     45.280549999999991
C      47.843649999999997     48.365530000000000     46.049250000000001
C      48.666849999999997     49.087730000000001     48.731049999999996
C      47.165350000000004     47.487329999999993     46.886349999999993
C      48.052750000000003     50.444908000000005     44.717749999999995
C      48.470150000000004     50.481118000000002     48.766350000000003
C      47.413749999999993     49.702430000000000     48.426549999999992
C      46.998050000000006     48.863830000000000     47.190749999999994
C      49.677149999999997     47.186729999999990     50.085049999999995
C      50.051450000000003     44.226529999999990     49.532849999999996
C      49.147149999999996     44.318729999999995     48.459549999999993
C      48.178449999999998     45.350429999999996     48.474350000000001
C      47.140150000000006     51.329820000000005     48.242249999999999
C      49.974650000000011     48.195029999999996     49.087949999999992
C      49.920850000000002     46.805129999999998     51.465049999999991
C      45.870750000000001     46.608730000000001     46.591250000000002
C      46.421850000000006     45.002729999999993     46.742350000000002
C      46.603750000000005     44.847929999999998     48.318649999999991
C      50.148750000000007     49.637529999999991     45.933149999999998
C      49.882549999999995     49.389429999999997     44.331149999999994
H      49.334450000000004     43.934629999999991     47.260549999999995
H      47.097750000000005     52.089469999999999     47.568150000000003
H      46.597650000000002     51.640500000000010     49.155349999999999
H      50.298550000000006     47.800629999999991     48.163950000000000
H      51.005750000000006     48.362629999999989     49.111450000000005
H      50.703550000000007     47.296329999999990     52.107050000000001
H      49.166449999999998     46.117129999999996     51.894349999999989
H      45.374049999999997     46.851929999999989     45.629549999999995
H      44.994249999999994     46.816229999999997     47.229550000000003
H      47.306049999999999     44.881129999999992     46.279949999999999
H      45.685550000000006     44.622229999999995     46.189449999999994
H      45.832750000000004     45.361829999999991     48.738249999999994
H      46.323549999999997     43.910530000000001     48.851050000000001
H      50.490850000000009     48.633729999999993     46.295249999999996
H      50.154750000000007     50.331470000000003     46.592849999999999
H      49.880549999999999     50.276199000000005     43.892949999999999
H      50.318150000000003     48.449930000000002     44.250649999999993
O      50.742249999999999     43.950429999999990     50.344750000000005
O      47.597650000000002     51.399300000000004     44.363950000000003
