18

C      47.250216999999978     47.196049999999993     48.406750000000002
C      47.988294999999972     47.911549999999991     47.297950000000007
C      47.684787999999976     45.979749999999996     49.130450000000003
C      48.881674999999980     46.934550000000002     46.851850000000006
C      46.480424999999997     47.879149999999996     49.397449999999999
C      47.869164999999974     49.336449999999999     46.854050000000008
C      49.061674999999973     45.628149999999998     49.102550000000001
C      49.403134999999985     45.785449999999997     47.666450000000005
C      46.757524999999987     49.245450000000005     49.156349999999996
C      47.203530999999984     49.984349999999992     47.969050000000003
H      47.003765999999985     45.645449999999997     49.950750000000006
H      49.573594999999983     47.188050000000004     45.905149999999999
H      45.770025000000011     47.508049999999997     50.119549999999997
H      48.207764999999988     49.570650000000001     45.880450000000003
H      49.556554999999982     44.993849999999995     50.053249999999998
H      50.229974999999989     45.149249999999995     47.086050000000007
H      46.137324999999969     49.729149999999997     49.931850000000004
H      47.414544999999983     51.006150000000005     48.224950000000000
