92

C      51.037149999999997     45.496449999999996     48.774249999999995
C      44.611149999999995     41.856749999999991     46.480350000000001
C      44.881749999999997     43.127849999999995     45.859850000000002
C      48.462449999999990     42.639849999999996     49.732650000000000
C      48.969049999999996     43.953850000000003     49.089049999999993
C      45.124049999999997     41.880749999999992     47.883249999999997
C      46.004449999999991     44.161349999999999     46.289850000000001
C      45.805449999999993     41.055650000000000     46.875250000000001
C      48.263149999999996     44.345349999999996     47.833350000000003
C      46.528149999999997     42.547649999999990     48.060449999999996
C      46.932549999999992     43.864949999999993     47.314349999999997
C      43.333649999999992     40.890549999999990     45.966950000000004
C      42.126149999999996     41.904749999999993     45.663950000000000
C      42.417049999999989     43.285550000000001     44.969950000000004
C      43.691949999999991     43.751649999999998     45.278449999999999
C      50.227349999999987     44.558149999999998     49.518250000000002
C      49.080149999999989     42.291849999999997     51.027949999999997
C      50.283049999999989     42.994950000000003     51.362650000000002
C      51.002249999999989     44.029049999999998     50.634750000000004
C      43.910449999999997     42.481749999999991     48.567050000000002
C      42.678749999999994     41.292249999999996     48.441150000000000
C      42.218049999999991     41.102449999999990     46.994149999999998
C      45.995849999999990     45.560949999999991     46.017050000000005
C      44.603849999999994     46.280949999999990     45.919450000000005
C      43.592649999999992     45.115650000000002     45.166850000000004
C      44.922249999999991     47.337350000000001     44.765549999999998
C      46.077749999999995     48.339949999999988     44.985250000000001
C      47.338849999999994     42.054549999999992     49.241149999999998
C      50.245849999999990     51.580249999999992     47.074550000000002
C      50.398649999999989     50.200549999999993     47.620449999999998
C      45.692149999999998     51.081249999999997     45.868650000000002
C      45.529349999999994     49.432549999999992     46.086250000000000
C      49.157950000000000     52.155850000000001     46.183349999999997
C      49.188949999999991     49.408549999999991     47.206750000000000
C      46.737749999999991     52.001049999999992     45.592250000000000
C      46.741649999999993     49.017249999999990     46.285649999999997
C      48.090949999999992     51.354349999999997     45.913950000000000
C      47.965449999999990     49.922550000000001     46.348950000000002
C      51.243049999999997     52.594449999999995     47.537849999999999
C      52.594949999999997     52.058549999999997     47.868350000000000
C      52.676649999999995     50.666550000000001     48.188549999999999
C      51.589549999999988     49.706750000000000     48.159150000000004
C      44.447249999999997     51.964349999999996     46.024549999999998
C      43.386749999999992     50.055449999999993     47.244750000000003
C      44.541249999999991     49.193849999999998     47.103050000000003
C      51.161249999999995     54.090949999999992     47.623550000000002
C      52.277049999999988     55.038849999999996     47.836550000000003
C      53.642449999999997     54.544849999999997     48.093350000000001
C      53.730949999999993     53.077249999999992     47.968750000000000
C      49.112449999999995     53.750050000000002     46.254250000000006
C      49.854450000000000     54.636049999999997     47.401249999999997
H      51.823949999999996     45.015949999999989     48.219850000000001
H      51.493549999999999     46.274349999999998     49.511249999999997
H      50.515149999999991     46.009049999999988     48.131650000000000
H      42.590549999999993     52.076749999999990     46.684350000000002
H      46.126749999999987     39.806950000000001     47.143549999999998
H      48.686650000000000     45.344449999999995     47.251449999999998
H      41.393850000000000     41.469549999999998     44.921450000000000
H      41.572049999999990     43.769649999999999     44.766150000000003
H      48.600349999999992     41.378950000000003     51.329850000000000
H      50.725849999999994     42.507449999999992     52.276249999999997
H      51.863149999999990     44.663550000000001     50.934549999999994
H      43.630249999999990     43.475749999999991     48.129650000000005
H      44.245549999999994     42.429349999999999     49.528849999999998
H      42.932549999999992     40.301050000000004     49.055950000000003
H      41.632849999999991     41.693249999999992     48.919350000000001
H      41.594449999999995     40.264650000000003     47.168050000000001
H      43.506549999999990     40.509950000000003     44.921050000000001
H      46.443849999999998     45.635449999999992     44.947049999999997
H      46.874049999999997     46.080349999999996     46.597349999999999
H      44.123949999999994     46.773550000000000     46.962550000000000
H      43.741450000000000     45.186949999999996     44.075550000000000
H      42.483849999999990     45.442349999999990     45.296450000000000
H      45.180449999999993     46.669849999999997     43.723750000000003
H      43.882449999999992     47.762949999999989     44.521450000000002
H      46.453649999999996     48.537649999999999     43.928049999999999
H      46.939249999999987     41.204650000000001     49.877350000000000
H      48.676949999999991     48.463049999999996     47.225349999999999
H      46.725649999999987     53.102750000000000     45.379350000000002
H      53.725049999999996     50.429349999999999     48.512149999999998
H      52.091449999999995     48.706549999999993     48.289949999999997
H      44.363049999999987     52.975749999999991     45.502050000000004
H      42.498849999999990     50.025449999999992     47.903950000000002
H      44.652749999999997     48.423449999999988     48.186550000000004
H      52.144149999999996     56.193049999999999     48.124150000000000
H      54.360349999999997     55.188849999999988     48.822949999999999
H      54.606150000000000     52.804850000000002     48.577450000000006
H      48.126649999999998     53.867649999999998     46.092649999999999
H      49.568849999999998     54.122149999999991     45.229950000000002
H      49.965049999999991     55.699849999999998     47.087150000000001
H      49.124949999999998     54.644149999999996     48.243650000000002
N      43.393549999999991     51.323549999999997     46.703250000000004
