18

C      47.500249999999994     47.638849999999991     47.824549999999988
C      48.797249999999998     48.221749999999993     48.209650000000003
C      46.088349999999998     48.331250000000004     47.936749999999996
C      48.718049999999998     49.563449999999996     48.796849999999999
C      47.262449999999994     46.413949999999993     47.136649999999996
C      49.920949999999998     47.377350000000000     47.873550000000002
C      46.359550000000006     49.667349999999992     48.310449999999996
C      47.546749999999996     50.249050000000004     49.024650000000001
C      48.523950000000006     45.812850000000005     46.745849999999997
C      49.744049999999994     46.183150000000005     47.072749999999999
H      45.100349999999999     48.059649999999998     47.670849999999994
H      49.578250000000004     50.132050000000000     49.070749999999997
H      46.308550000000004     46.161449999999995     46.957850000000001
H      50.899650000000001     47.514649999999996     47.914449999999995
H      45.163750000000000     49.968749999999993     48.463249999999995
H      47.247750000000003     51.294249999999998     49.505749999999999
H      48.580450000000006     44.705750000000002     46.494250000000001
H      50.608849999999997     45.636950000000006     46.634349999999998
