6

C      48.602149999999995     48.233249999999998     47.433449999999993
C      47.516650000000006     47.767349999999993     48.247049999999994
H      49.348250000000000     47.486549999999994     47.137850000000000
H      46.651750000000000     48.407749999999993     48.862150000000000
H      48.583649999999999     49.385649999999998     47.365249999999996
H      47.585249999999995     46.614350000000002     48.511249999999997
