25

C      49.458149999999989     49.976649999999999     47.116949999999989
C      50.853620000000006     50.115150000000000     47.778849999999991
C      52.134520000000009     49.525250000000000     48.473950000000002
C      46.334519999999998     48.078050000000005     48.176050000000004
C      46.935689999999994     46.784650000000006     48.450350000000000
C      44.866849999999999     48.440150000000003     48.398849999999996
C      45.812740000000005     45.981350000000006     48.865549999999999
C      47.243229999999997     48.854750000000003     47.311449999999994
C      48.385890000000003     46.828250000000004     48.448450000000008
C      43.919799999999995     47.493350000000007     48.736150000000009
C      44.385170000000002     46.252550000000006     49.129050000000007
C      48.647340000000000     48.865150000000000     47.326549999999997
C      49.332679999999996     47.689350000000005     47.740650000000002
H      52.471120000000013     49.903550000000003     49.462850000000003
H      53.170320000000004     49.698250000000002     47.988849999999999
H      52.098920000000007     48.376150000000003     48.802850000000007
H      44.448160000000001     49.504450000000006     48.036850000000001
H      45.835620000000006     45.003450000000001     49.302049999999994
H      46.866720000000001     49.838150000000006     46.894149999999996
H      48.635760000000005     45.870350000000002     49.108249999999998
H      42.829679999999996     47.648750000000000     48.457049999999995
H      43.608689999999996     45.482750000000003     49.244249999999994
H      48.976299999999995     50.680150000000012     46.537149999999997
H      50.454570000000004     47.540050000000001     47.767650000000003
O      50.097310000000007     50.996549999999999     48.232950000000002
