6

C      48.417899999999989     48.454999999999991     48.654149999999987
C      47.717500000000008     47.916499999999999     47.527749999999997
H      49.238199999999999     48.104500000000002     49.059349999999995
H      47.443199999999997     48.893599999999999     49.143950000000004
H      46.761800000000001     48.215600000000002     47.039050000000003
H      48.241199999999999     47.106400000000001     46.856049999999996
