18

C      48.035449999999990     47.507300000000001     47.441099999999992
C      48.744349999999997     47.638200000000005     48.775599999999990
C      48.915549999999996     47.682800000000007     46.237099999999998
C      50.186650000000000     47.890000000000008     48.902600000000000
C      46.534649999999999     47.250300000000003     47.282999999999994
C      47.851949999999995     47.611100000000000     49.931999999999995
C      50.109049999999996     48.314000000000000     46.272599999999997
C      50.659449999999993     48.503800000000005     47.672699999999999
C      45.687949999999994     47.258199999999995     48.511400000000002
C      46.433449999999993     47.327300000000001     49.756599999999999
H      48.342649999999992     47.525300000000009     45.134700000000002
H      50.834750000000000     48.202700000000000     49.724600000000002
H      46.622450000000001     47.238000000000007     46.044099999999993
H      48.410049999999998     47.850200000000008     50.865299999999998
H      50.444949999999992     48.685200000000002     45.242299999999993
H      51.442650000000000     48.937599999999996     47.733899999999998
H      44.557350000000000     47.062400000000004     48.507399999999997
H      46.038349999999994     47.241199999999999     50.677399999999999
