45

C      43.891399999999990     45.418699999999987     50.267150000000001
C      43.028300000000009     44.726799999999997     49.198050000000009
C      47.248700000000007     51.249000000000002     48.658749999999998
C      52.650900000000000     48.544899999999991     50.062849999999997
C      46.149400000000007     48.782999999999994     48.474550000000008
C      47.103900000000003     46.844999999999999     46.940950000000001
C      51.840399999999995     49.704000000000001     50.111050000000006
C      52.167300000000004     47.357899999999994     49.344750000000005
C      48.177200000000006     50.056199999999997     49.001150000000010
C      49.539899999999996     50.433299999999996     49.278750000000002
C      50.551800000000007     45.742399999999996     48.130449999999996
C      47.556500000000007     48.628999999999998     48.792749999999998
C      48.481900000000003     46.676199999999987     47.441550000000007
C      50.600200000000008     49.361299999999993     49.481650000000002
C      51.119000000000007     47.006999999999998     48.611550000000008
C      48.726100000000010     47.852899999999998     48.302950000000010
C      50.135500000000000     48.211399999999998     48.624250000000004
C      44.837700000000005     49.042199999999994     47.877549999999999
C      43.179800000000007     49.216100000000004     47.621449999999996
C      45.606800000000000     47.595899999999993     50.512749999999997
C      46.654400000000003     48.413999999999994     49.895949999999999
C      44.811100000000003     46.643099999999997     49.775050000000007
C      44.266399999999997     49.865199999999994     46.864249999999998
C      44.018300000000004     51.223799999999990     44.944649999999996
C      44.718399999999995     50.937399999999990     46.085050000000010
H      42.709400000000009     45.161299999999997     48.289650000000009
H      44.616099999999996     44.622599999999998     50.776250000000005
H      42.168100000000003     44.302199999999999     49.693650000000005
H      43.624299999999998     43.772299999999994     48.857250000000008
H      49.111800000000009     44.421699999999994     47.373249999999999
H      53.831899999999997     48.465899999999998     50.354150000000004
H      52.094200000000008     50.682299999999998     50.579149999999998
H      52.690900000000006     46.509799999999998     49.208250000000007
H      49.717700000000001     51.399200000000000     48.962950000000006
H      51.534200000000006     45.207099999999997     48.544250000000005
H      43.115100000000005     49.201399999999992     48.826250000000002
H      45.213200000000008     47.395299999999999     51.579849999999993
H      44.974899999999998     46.453799999999994     48.707450000000009
H      43.214300000000001     46.037399999999998     50.954250000000002
H      42.704600000000006     48.187099999999994     47.759349999999998
H      45.266100000000002     51.711300000000001     46.472750000000005
N      49.357599999999998     45.550399999999996     47.556350000000009
O      43.907699999999998     52.189799999999998     44.420150000000007
O      46.689600000000006     52.227700000000006     48.526550000000000
O      46.456099999999999     46.958300000000001     46.017449999999997
