62

C      49.421599999999991     49.579149999999984     50.132399999999990
C      50.471699999999998     49.942450000000008     51.054600000000008
C      48.476799999999997     50.987950000000012     44.653500000000008
C      48.536799999999999     50.256450000000001     49.176900000000003
C      49.160399999999996     52.874450000000010     48.355900000000005
C      47.068799999999996     51.079149999999998     44.586700000000008
C      46.852100000000000     51.697950000000006     46.979900000000001
C      49.118199999999995     53.757350000000002     49.509600000000006
C      48.730999999999995     51.526849999999996     48.553100000000001
C      49.549299999999995     52.411850000000001     49.695000000000007
C      46.233499999999999     51.482749999999996     45.647900000000007
C      48.402600000000000     51.714050000000000     47.132900000000006
C      49.240699999999997     48.055949999999996     50.328199999999995
C      50.449299999999994     47.612949999999998     50.973600000000005
C      51.420199999999994     51.188350000000000     50.834700000000012
C      51.088899999999995     48.762649999999994     51.621600000000001
C      48.049099999999996     47.466349999999991     49.554200000000009
C      48.139399999999995     45.941350000000000     49.620100000000008
C      49.500599999999999     45.439650000000000     50.111800000000002
C      50.718100000000000     46.217150000000004     50.730400000000003
C      47.061099999999996     48.205849999999998     48.786900000000003
C      47.228299999999997     49.635149999999996     48.622600000000006
C      46.257199999999997     50.474949999999993     47.750000000000000
C      45.998599999999996     52.114450000000005     48.140200000000007
C      48.277099999999997     45.705749999999995     51.353400000000008
C      44.466700000000003     52.818950000000001     47.987499999999997
C      44.758699999999997     51.815049999999999     45.518799999999999
C      47.804299999999998     42.065249999999992     45.649100000000004
C      47.442999999999998     44.818550000000002     48.988000000000000
C      46.463299999999997     42.899749999999997     47.492800000000003
C      46.138199999999998     44.505250000000004     49.667200000000008
C      46.696599999999997     41.915549999999996     46.522599999999997
C      48.757700000000000     43.956249999999997     46.934500000000000
C      45.159299999999995     42.657049999999998     48.147300000000001
C      45.112800000000000     43.498649999999998     49.348700000000008
C      48.801400000000001     43.083649999999992     45.732100000000003
C      47.539999999999999     44.003550000000004     47.791300000000007
H      48.806199999999997     50.518749999999997     43.832599999999999
H      46.449099999999994     50.807249999999996     43.743099999999998
H      49.060600000000001     54.638549999999995     50.358800000000002
H      52.064400000000006     48.457549999999998     52.052100000000010
H      49.720799999999997     44.342649999999992     49.851600000000005
H      51.497900000000001     45.702550000000002     51.225400000000008
H      46.446300000000001     47.653049999999993     48.126800000000003
H      45.472799999999999     49.839150000000004     47.308599999999998
H      46.555399999999999     52.796650000000000     48.959800000000001
H      44.579799999999999     53.160750000000007     49.074600000000004
H      44.556699999999999     53.820250000000001     47.620400000000004
H      43.559299999999993     52.323650000000001     47.689000000000007
H      50.144300000000001     51.345550000000003     45.352599999999995
H      52.440700000000007     51.223450000000000     51.294100000000000
H      46.090100000000000     45.088949999999997     50.579499999999996
H      45.829299999999996     41.361450000000005     46.279200000000003
H      49.168999999999997     44.928150000000002     47.192599999999999
H      44.443199999999997     41.875349999999997     48.127899999999997
H      44.034499999999994     43.674149999999997     49.566000000000003
H      49.461200000000005     43.545349999999999     44.994000000000000
H      47.550699999999999     41.392250000000004     44.947400000000002
N      49.198499999999996     51.201350000000005     45.893799999999999
O      47.718899999999998     45.903449999999992     52.256900000000002
O      51.151599999999988     51.983549999999994     49.929200000000009
O      43.715199999999996     52.132649999999998     45.225700000000003
