18

C      48.256399999999992     48.282199999999996     47.526744999999991
C      47.851100000000002     47.253000000000000     48.405069000000005
C      47.567200000000000     49.542600000000000     47.861645000000003
C      46.715299999999999     47.417200000000001     49.025305000000010
C      49.319000000000003     48.470100000000002     46.559644999999996
C      48.629099999999994     46.105800000000002     48.186536000000011
C      46.407200000000003     49.707899999999995     48.635723000000006
C      45.826500000000003     48.526800000000001     49.224305000000008
C      50.149000000000001     47.313100000000006     46.534744999999994
C      49.768099999999990     46.269800000000004     47.437545000000007
H      48.112299999999998     50.337299999999999     47.052744999999994
H      46.085000000000001     46.505899999999997     49.649515000000008
H      49.581299999999999     49.348399999999998     45.900844999999997
H      48.681500000000000     45.204200000000000     48.894369000000005
H      46.031199999999998     50.795800000000000     48.761320000000005
H      44.886899999999997     48.596900000000005     50.099155000000003
H      51.113100000000003     47.336700000000000     45.979244999999999
H      50.510700000000000     45.660600000000002     47.596145000000000
