18

C      47.347699999999989     48.177499999999988     48.630504999999992
C      48.533099999999997     47.652199999999993     47.963454999999996
C      46.208800000000004     48.477999999999994     47.727334999999997
C      48.364200000000004     47.382099999999994     46.476864999999997
C      47.076000000000001     48.192899999999995     50.023314999999997
C      49.749000000000002     47.057800000000000     48.381554999999999
C      46.306800000000003     48.416600000000003     46.318224999999998
C      47.179499999999997     47.469200000000001     45.651885000000000
C      48.252599999999994     47.387400000000000     50.477275000000006
C      49.492600000000003     47.063099999999991     49.792794999999998
H      45.287799999999997     48.920499999999990     48.113414999999996
H      49.053999999999995     46.789000000000001     45.892984999999996
H      46.134399999999992     48.364499999999992     50.658014999999992
H      50.712200000000003     46.832899999999995     48.080334999999998
H      45.555199999999992     49.210999999999999     46.040054999999995
H      47.064599999999992     47.262500000000003     44.645235000000000
H      48.393300000000004     46.843000000000004     51.354765000000000
H      50.051499999999997     46.825599999999994     50.700125000000000
