18

C      47.483300000000000     47.559999999999988     48.730399999999996
C      48.270599999999995     48.167000000000002     47.578600000000002
C      48.408600000000000     47.192300000000003     49.753900000000002
C      49.801600000000001     48.058599999999998     47.523900000000005
C      46.154000000000003     47.949100000000001     48.926300000000005
C      47.470900000000007     48.384200000000007     46.344700000000003
C      49.827400000000004     47.195399999999992     49.657499999999999
C      50.662600000000005     47.713800000000006     48.524100000000004
C      45.334600000000002     48.149200000000008     47.743600000000001
C      46.030899999999995     48.556400000000011     46.537599999999998
H      48.209800000000008     47.264399999999995     50.709699999999998
H      50.384700000000002     48.375200000000007     46.481999999999999
H      45.855499999999999     47.547799999999995     50.018100000000004
H      47.694800000000008     48.498699999999999     45.290300000000002
H      50.521999999999998     46.926500000000004     50.436199999999999
H      51.796399999999998     47.780999999999992     48.407600000000002
H      44.203600000000002     48.026899999999998     47.707599999999999
H      45.336300000000001     49.073499999999996     45.855400000000003
