17

C      47.951799999999992     47.786549999999984     48.795650000000002
C      49.314100000000003     47.464950000000002     49.125349999999997
C      50.192500000000003     47.609349999999992     47.940650000000005
C      49.706099999999999     48.823149999999998     45.603750000000005
C      49.696199999999997     47.477850000000004     50.717950000000002
C      47.958599999999997     48.199349999999995     47.382550000000009
C      49.454699999999995     48.092449999999999     46.861950000000007
C      46.704799999999999     48.085349999999991     46.616450000000000
C      45.539399999999993     48.376449999999991     47.373350000000002
H      46.552699999999994     47.951449999999994     45.425049999999999
H      47.137799999999999     48.046849999999992     49.422449999999998
H      51.375599999999999     47.786749999999998     48.149950000000004
H      49.470599999999997     46.390349999999998     51.112449999999995
H      48.951699999999995     48.212949999999992     50.934250000000006
H      50.576699999999995     48.001149999999996     51.086749999999995
O      50.030799999999992     49.609650000000002     44.887550000000005
O      44.624400000000001     48.510049999999993     48.000150000000005
