28

C      47.833599999999990     47.604599999999991     48.371542499999997
C      47.358100000000007     46.640200000000000     49.413262500000002
C      44.872900000000001     49.529199999999996     46.565662500000002
C      50.215100000000007     49.114999999999988     47.789232500000004
C      45.909400000000005     46.683000000000000     49.064572500000011
C      46.476600000000005     49.456799999999994     46.805702500000002
C      44.347900000000010     48.504399999999997     47.602772500000000
C      46.643000000000001     48.277699999999989     47.572122499999999
C      45.414900000000003     47.666199999999996     48.187092500000006
C      49.208300000000008     48.143400000000000     48.398872500000003
C      50.093500000000006     47.437399999999997     49.310642500000000
C      49.722999999999999     46.165199999999999     49.985732500000005
C      48.254300000000001     45.903599999999997     50.083642499999996
C      51.427500000000009     49.526699999999998     48.444962500000003
C      51.972200000000001     48.767299999999999     49.429332500000001
C      51.415000000000006     47.600600000000000     49.933102500000004
C      44.109800000000007     50.336700000000000     45.799902500000002
H      45.246200000000002     46.200399999999995     49.723122500000002
H      47.366300000000010     50.134000000000000     46.465532500000002
H      43.354700000000008     48.182300000000005     47.683892499999999
H      50.220600000000005     46.062599999999996     51.125632499999995
H      47.980600000000010     45.062999999999995     50.772562499999999
H      51.606999999999999     50.720499999999994     48.179272500000003
H      52.935000000000002     49.041100000000000     49.958072500000000
H      51.924599999999998     47.136399999999995     50.713232500000004
H      43.064999999999998     50.184999999999995     45.943032500000001
H      44.668400000000005     50.937000000000005     44.874367500000005
O      49.911600000000007     49.533499999999997     46.734662499999999
