18

C      48.874999999999993     48.180449999999986     47.821599999999997
C      47.523600000000002     47.691249999999997     48.335599999999999
C      49.111699999999999     49.627650000000003     47.548600000000000
C      46.482799999999997     48.736149999999995     48.411299999999997
C      49.806699999999999     47.089849999999998     47.422700000000006
C      47.637900000000002     46.421750000000003     49.022100000000009
C      48.005000000000003     50.535849999999996     47.682500000000005
C      46.682299999999998     50.067449999999994     48.060500000000005
C      49.548299999999998     45.740650000000002     47.763300000000001
C      48.703699999999998     45.464349999999996     48.950500000000005
H      50.053300000000000     49.854150000000004     47.100499999999997
H      45.605000000000004     48.533749999999998     48.756399999999999
H      50.394999999999996     47.649249999999995     46.516700000000000
H      46.569900000000004     46.334850000000003     49.483300000000000
H      48.348300000000002     51.562650000000005     47.553200000000004
H      45.712600000000002     50.747050000000002     48.174800000000005
H      49.787599999999998     44.842349999999996     47.103000000000002
H      48.625299999999996     44.437349999999995     49.379199999999997
