18

C      47.319679999999991     47.560149999999993     48.064849999999993
C      48.412809999999993     48.480549999999994     47.885550000000002
C      46.846930000000000     46.891750000000002     46.821949999999994
C      49.207629999999995     48.667850000000001     46.649049999999995
C      46.955979999999997     47.400149999999996     49.493450000000003
C      49.023399999999995     48.963250000000002     49.184649999999998
C      47.596969999999999     46.932450000000003     45.685749999999992
C      48.703880000000012     47.953449999999989     45.541449999999990
C      47.449230000000000     48.154349999999994     50.642149999999994
C      48.564090000000007     49.026049999999998     50.418149999999990
H      45.856849999999994     46.384349999999998     46.888550000000002
H      50.143150000000006     49.152349999999998     46.530149999999999
H      46.125259999999997     46.817250000000001     49.303350000000002
H      49.898570000000007     49.615650000000002     48.635150000000003
H      46.987729999999999     46.518249999999995     44.888550000000002
H      49.269200000000012     48.186350000000004     44.617550000000001
H      46.742599999999996     48.040250000000000     51.382449999999999
H      49.277230000000003     49.465549999999993     51.108550000000001
