11

C      46.938449999999989     47.994150000000005     48.673699999999990
C      48.362549999999999     49.776850000000003     47.400900000000007
C      48.125950000000003     48.391850000000012     47.878600000000006
C      49.098849999999999     47.277950000000011     47.997600000000006
C      48.285449999999997     46.114550000000001     48.466999999999999
C      46.963850000000008     46.511750000000013     48.837100000000007
H      45.972049999999996     48.273650000000011     48.585000000000008
H      50.027950000000004     47.387750000000004     47.335099999999997
H      48.745750000000001     45.230950000000000     48.499099999999999
H      46.037250000000000     46.111250000000005     49.016999999999996
O      48.445950000000011     50.769050000000000     46.983000000000004
