19

C      48.568999999999988     48.032699999999991     48.734749999999991
C      48.340900000000005     46.855800000000002     47.538149999999995
C      49.922400000000010     47.875000000000000     49.044549999999994
C      45.497200000000007     50.220399999999998     48.542449999999995
C      47.791600000000003     49.189200000000000     49.086949999999995
C      47.019900000000007     47.038799999999995     46.932049999999997
C      50.394000000000005     46.632999999999996     48.523449999999997
C      49.433500000000009     45.989599999999996     47.585549999999998
C      46.509600000000006     48.979799999999997     48.366749999999996
C      46.037100000000009     47.853399999999993     47.575049999999997
H      44.909099999999995     49.956599999999995     49.472850000000001
H      50.529000000000011     48.596200000000010     49.878750000000004
H      46.259399999999999     50.923000000000002     48.765049999999995
H      47.990300000000005     49.936499999999995     49.763649999999991
H      46.804100000000005     46.334699999999998     46.121249999999996
H      51.266000000000005     46.105100000000007     48.890749999999997
H      49.481099999999998     45.076999999999998     47.005249999999997
H      44.733999999999995     50.631900000000002     48.065249999999999
H      45.101100000000002     47.882199999999997     47.129649999999998
