58

C      46.498549999999994     46.082509999999985     48.119179999999993
C      45.244350000000004     45.452209999999994     48.273479999999992
C      46.782249999999998     45.024329999999992     52.703240000000008
C      47.267050000000005     46.396889999999999     49.285280000000000
C      44.680850000000000     44.825419999999994     49.612679999999997
C      47.579149999999998     45.748170000000002     51.798483000000004
C      46.880450000000003     45.596989999999991     50.390079999999998
C      45.504950000000001     44.967510000000004     50.704079999999990
C      47.191549999999999     46.498170000000002     46.700080000000000
C      46.149650000000001     46.547249999999991     45.716979999999992
C      44.778449999999999     46.051609999999997     46.031279999999995
C      44.376750000000001     45.169519999999991     47.144679999999994
C      48.591149999999999     46.851780000000005     46.549379999999999
C      48.893849999999993     47.754779999999997     45.347579999999994
C      46.687750000000001     46.930579999999992     44.396979999999999
C      48.360750000000003     47.484279999999998     48.951380000000000
C      49.339149999999997     46.821179999999998     47.947379999999995
C      42.507249999999999     44.213909999999998     48.600979999999993
C      43.002150000000000     44.832809999999995     47.362780000000001
C      44.032350000000001     45.694279999999992     44.711779999999990
C      44.606450000000002     45.686470000000000     43.121579999999994
C      45.698850000000000     46.797179999999997     43.138080000000002
C      50.887149999999998     50.038179999999997     45.670279999999991
C      51.263249999999992     48.611480000000000     45.144979999999990
C      51.541750000000000     51.237480000000005     46.149879999999996
C      52.701349999999998     48.893780000000007     44.570079999999990
C      49.573550000000004     50.336479999999995     45.745980000000003
C      50.339149999999997     47.649079999999998     44.950180000000003
C      52.826650000000001     51.275279999999995     45.595379999999992
C      53.374249999999996     50.131379999999993     44.982379999999992
C      48.666450000000005     49.126980000000003     45.792580000000001
C      47.826649999999994     47.707380000000001     44.293579999999992
H      44.567050000000002     44.212440000000001     52.757760000000005
H      47.160149999999994     45.347369999999998     53.750219999999999
H      48.030750000000005     46.541200000000003     52.219556999999995
H      48.784450000000000     47.965080000000000     49.720179999999999
H      48.035350000000001     48.501980000000003     48.446579999999997
H      50.329250000000009     47.414479999999998     47.996579999999994
H      49.443149999999996     45.771829999999994     48.204279999999997
H      41.507849999999998     44.039839999999998     48.715779999999995
H      43.143350000000005     43.762019999999993     50.699579999999997
H      42.513249999999999     44.488069999999993     46.340080000000000
H      43.486849999999997     46.540109999999999     44.389979999999994
H      42.999450000000003     44.962419999999995     44.895679999999999
H      43.736750000000001     45.869469999999993     42.517079999999993
H      44.819550000000000     44.576920000000001     43.014479999999992
H      46.254349999999995     46.897080000000003     42.249780000000001
H      44.925750000000001     47.641580000000005     43.275279999999995
H      51.102049999999998     52.228780000000000     46.646079999999998
H      53.268949999999997     47.996479999999991     44.538780000000003
H      49.429349999999992     51.342880000000008     46.206180000000003
H      50.621649999999995     46.850580000000008     44.269279999999995
H      53.430349999999997     52.237980000000007     45.667180000000002
H      54.492150000000002     50.047280000000001     44.744180000000000
H      47.672350000000002     49.248280000000008     46.485479999999995
H      48.473250000000000     48.161780000000007     43.407879999999992
N      45.516349999999996     44.597430000000003     52.196412000000009
N      43.382449999999999     44.090360000000004     49.605379999999997
