21

C      47.454449999999994     47.906469999999999     47.323200000000000
C      46.357149999999997     48.563350000000000     48.046200000000006
C      46.590449999999997     49.682440000000000     48.952000000000005
C      47.851050000000008     49.794659999999993     49.681800000000003
C      48.945349999999998     49.241349999999997     49.052500000000002
C      48.774149999999999     48.361350000000002     47.870200000000004
C      48.430250000000008     48.971180000000004     46.480700000000006
C      49.852849999999997     47.092699999999994     47.837499999999999
C      47.585150000000006     46.457679999999996     46.682900000000011
H      45.288350000000001     47.965199999999996     48.276500000000006
H      45.808650000000000     50.246910000000000     49.408600000000000
H      47.949649999999998     50.393979999999999     50.448900000000002
H      49.997949999999996     49.304199999999994     49.259100000000011
H      47.931550000000001     49.753149999999991     46.086599999999997
H      49.330350000000003     48.680549999999997     45.716200000000008
H      49.902650000000001     46.304720000000003     47.033099999999997
H      49.757849999999998     46.324330000000003     48.648100000000007
H      50.711649999999999     47.587189999999993     48.355600000000003
H      48.620550000000001     46.324280000000002     46.353600000000007
H      46.825949999999999     45.606020000000001     47.340600000000002
H      47.148649999999996     46.534289999999999     45.551099999999998
