18

C      48.458619999999996     48.746099999999998     49.003834999999995
C      47.351419999999997     48.612899999999996     48.051334999999995
C      49.581620000000001     49.573099999999997     48.679535000000001
C      47.596020000000003     49.249300000000005     46.689134999999993
C      48.607620000000004     47.706199999999995     49.995734999999996
C      46.299759999999999     47.813500000000005     48.545535000000001
C      49.736719999999998     49.868899999999996     47.281534999999991
C      48.769720000000000     49.765400000000000     46.221535000000003
C      47.442720000000001     46.885999999999996     50.236134999999990
C      46.195160000000001     46.859999999999999     49.516035000000002
H      50.236119999999993     49.472600000000000     49.563434999999998
H      46.956119999999999     49.680999999999997     45.940635000000000
H      49.638820000000003     47.613500000000002     50.694434999999999
H      45.339040000000004     47.563900000000004     47.753635000000003
H      50.857419999999998     50.193799999999996     47.101934999999997
H      49.015720000000009     50.175100000000000     45.305565000000001
H      47.344020000000000     45.806200000000004     50.582034999999991
H      45.142580000000002     46.186300000000003     49.396834999999996
