15

C      48.010049999999993     48.737149999999993     48.656999999999989
C      47.546150000000004     47.314250000000001     48.415199999999999
C      47.243649999999995     46.944850000000002     47.010900000000007
C      47.484249999999996     47.910550000000001     45.895200000000003
C      47.704249999999995     49.267049999999998     46.242800000000003
C      47.911749999999998     49.767150000000001     47.661400000000000
C      48.444849999999995     46.583449999999999     50.625600000000006
C      47.566150000000000     46.304950000000005     49.570400000000006
H      47.909749999999995     48.823050000000009     49.697699999999998
H      46.632050000000000     46.122450000000001     46.627200000000002
H      47.292949999999998     47.644750000000002     44.891199999999998
H      47.435250000000003     49.679150000000000     45.211399999999998
H      47.921450000000000     50.784549999999996     47.645800000000008
H      47.181249999999999     45.215450000000004     49.534099999999995
O      49.367950000000000     46.269950000000001     51.108800000000002
