18

C      48.023209999999999     48.611699999999992     48.331749999999992
C      47.979260000000004     47.123300000000000     47.766750000000002
C      46.888960000000004     49.380800000000008     47.783349999999999
C      46.663540000000005     46.565200000000004     47.252849999999995
C      49.229479999999995     48.987899999999996     49.090049999999998
C      49.094850000000008     46.418599999999998     48.322450000000003
C      45.781670000000005     48.820099999999996     46.926649999999995
C      45.524530000000006     47.317300000000003     46.843049999999998
C      50.413420000000002     48.229399999999998     49.209149999999994
C      50.447660000000013     47.006100000000004     48.830449999999999
H      46.941910000000007     50.505099999999999     47.587350000000001
H      46.672080000000008     45.524400000000000     47.133250000000004
H      49.267640000000000     49.964500000000001     49.828850000000003
H      49.467910000000003     45.494900000000001     48.066249999999997
H      45.304920000000003     49.594800000000006     46.131050000000002
H      44.567750000000004     46.983599999999996     46.839649999999999
H      51.200150000000008     48.761400000000009     49.868949999999998
H      51.432249999999996     46.334900000000005     48.902749999999997
