18

C      47.889219999999995     47.686599999999999     48.339949999999995
C      48.382408000000012     48.657899999999998     47.322550000000000
C      47.218775000000022     46.307199999999995     47.961950000000002
C      48.025193999999999     48.357699999999994     45.874749999999999
C      48.018490000000000     47.738600000000005     49.859449999999995
C      48.847674999999995     49.746899999999997     48.022649999999999
C      47.112375000000000     46.044499999999999     46.632649999999998
C      47.413175000000010     47.117099999999994     45.629150000000003
C      48.242785999999995     48.946500000000000     50.418850000000006
C      48.639049999999997     49.867900000000006     49.392449999999997
H      46.864375000000024     45.707999999999998     48.711849999999998
H      48.085918000000007     48.929900000000004     44.942350000000005
H      47.733467140000002     46.894800000000004     50.519450000000006
H      49.398825000000002     50.729199999999992     47.411650000000002
H      46.601174999999998     45.180800000000005     46.167749999999998
H      47.373675000000006     47.018900000000002     44.538049999999998
H      48.177536000000003     49.120900000000006     51.461950000000002
H      49.097885000000005     50.819199999999995     49.503550000000004
