9

C      48.386049999999990     48.591699999999989     47.138150000000003
C      48.274349999999998     47.080300000000001     48.134550000000004
C      47.519149999999996     48.273900000000005     47.945750000000004
H      48.730449999999990     49.713400000000000     47.512150000000005
H      49.160950000000000     46.403799999999997     47.952250000000006
H      47.584649999999996     46.286600000000000     47.723450000000000
H      48.174650000000000     48.502599999999994     46.196849999999998
H      46.839050000000000     48.180000000000000     49.803150000000002
O      47.088349999999998     48.910800000000002     49.136750000000006
