6

C      48.050699999999992     48.526599999999988     48.500799999999991
C      47.785400000000003     47.602000000000004     47.461900000000000
H      47.602300000000000     48.199699999999993     49.513700000000000
H      48.798099999999998     49.203000000000003     48.459399999999995
H      47.967300000000002     48.070999999999998     46.486300000000000
H      47.201900000000002     46.796999999999997     47.827900000000000
