18

C      48.471299999999992     48.570349999999991     48.752249999999989
C      47.893300000000004     47.837850000000003     47.750850000000000
C      49.272800000000004     47.706350000000000     49.440650000000005
C      48.643900000000002     46.619550000000004     47.139949999999999
C      48.129100000000001     50.006250000000009     48.893050000000002
C      46.823399999999999     48.278450000000007     46.732450000000000
C      49.698500000000003     46.358450000000005     49.086750000000009
C      49.476600000000005     45.733550000000008     47.765550000000005
C      47.086100000000002     50.485050000000001     48.076149999999998
C      46.306200000000004     49.619250000000008     47.229050000000001
H      49.852600000000002     48.224350000000001     50.222250000000003
H      48.200800000000001     46.496549999999999     46.044750000000008
H      48.684000000000005     50.542750000000012     49.650850000000005
H      46.513100000000001     47.669650000000004     45.777749999999997
H      50.394099999999995     45.824349999999995     49.751750000000001
H      49.888600000000004     44.700350000000000     47.286150000000006
H      46.800900000000006     51.299650000000000     48.442950000000010
H      45.605900000000005     50.336449999999999     46.663550000000001
