18

C      48.548399999999994     47.880249999999990     47.507389999999987
C      47.836900000000000     48.856749999999998     48.347169999999991
C      49.070200000000000     48.012450000000008     46.118910000000000
C      46.973600000000005     49.716550000000005     47.424700000000001
C      48.963700000000003     46.803849999999997     48.239310000000003
C      47.611800000000002     48.832349999999998     49.818950000000001
C      48.346400000000003     49.040950000000002     45.476754999999997
C      47.225899999999996     49.872549999999997     46.047336999999999
C      49.098100000000002     46.728949999999998     49.707229999999996
C      48.427500000000009     47.731949999999998     50.419899999999998
H      49.943200000000004     47.391149999999996     45.729633999999990
H      46.056799999999996     50.127249999999997     47.642499999999998
H      49.548400000000001     45.754950000000001     48.098029999999994
H      47.355199999999996     49.396349999999998     50.642150000000001
H      48.890900000000002     49.436850000000000     44.438520000000011
H      46.455600000000004     50.245049999999999     45.354767999999993
H      49.759900000000002     46.026049999999998     49.825759999999988
H      48.488799999999998     47.839050000000000     51.561479999999989
