25

C      47.716649999999987     47.820959999999985     47.405389999999990
C      50.542149999999992     47.054180000000002     49.994219999999999
C      49.290349999999989     46.767009999999999     49.423919999999995
C      46.449050000000000     48.030460000000005     46.482839999999996
C      48.119550000000004     46.874589999999998     48.437680000000000
C      47.547249999999991     48.960200000000000     46.471089999999997
C      48.279649999999990     50.062250000000006     45.923929999999999
C      51.302250000000001     46.604500000000002     51.129419999999996
C      45.089950000000002     48.128309999999999     47.294609999999999
C      46.361549999999994     47.007899999999992     45.409639999999996
C      50.144549999999995     48.194149999999993     49.099490000000003
C      46.963349999999991     45.892849999999996     48.839680000000001
H      44.730849999999990     49.048580000000001     47.518940000000001
H      44.963149999999999     47.494069999999994     48.264029999999991
H      44.261349999999993     47.819580000000002     46.817900000000002
H      45.672150000000002     46.757649999999998     44.649580000000000
H      46.518850000000000     46.109970000000004     45.773559999999996
H      47.383449999999996     47.238900000000001     44.948709999999998
H      50.298249999999996     49.289000000000001     48.908110000000008
H      50.341350000000006     47.933340000000001     48.071399999999997
H      46.088949999999997     46.549689999999998     49.265820000000005
H      47.463650000000001     44.992009999999993     49.359220000000001
H      46.424549999999996     45.620890000000003     47.848199999999991
O      48.592150000000004     51.007990000000007     45.349469999999997
O      51.738650000000007     45.570279999999997     51.350420000000000
