5

C      47.759973999999985     48.428599999999996     47.962759999999996
H      47.283611999999991     48.524700000000010     48.922910000000002
H      48.904294000000007     48.700800000000001     47.928970000000000
H      47.095705999999993     48.705500000000001     47.077089999999998
H      48.102733999999998     47.294499999999999     47.770890000000001
