18

C      47.983199999999997     48.472799999999999     47.449119999999994
C      47.231900000000003     47.833500000000008     48.564619999999998
C      47.300100000000008     49.453100000000006     46.612519999999996
C      46.475400000000000     48.640500000000003     49.399016000000003
C      49.257899999999999     48.029200000000003     46.948019999999993
C      48.659500000000001     45.753700000000009     48.100119999999997
C      46.321700000000000     50.203000000000003     47.378920000000001
C      46.052900000000001     49.898900000000005     48.727596099999992
C      49.422100000000007     46.558800000000005     47.194519999999990
C      47.532000000000004     46.454900000000009     48.779007800000009
H      47.572700000000005     49.624100000000006     45.574819999999995
H      46.224100000000000     48.309800000000003     50.425180000000005
H      49.938700000000004     48.509600000000006     46.157220000000002
H      48.928100000000008     44.744100000000003     48.276019999999995
H      45.909399999999998     51.255899999999997     46.873919999999991
H      45.503700000000002     50.668600000000012     49.100604000000011
H      50.496299999999998     46.222000000000008     46.817419999999991
H      46.897399999999998     45.730700000000006     49.465223999999999
