5

C      47.822899999999990     48.049599999999998     47.883899999999990
H      47.252499999999998     47.203800000000001     47.108800000000002
H      47.095700000000001     48.796199999999999     47.734499999999997
H      48.038899999999991     47.814399999999999     48.891199999999998
H      48.904299999999999     48.433900000000001     47.752600000000001
