18

C      48.745649999999983     48.353449999999995     48.274850000000001
C      47.644050000000000     47.691250000000004     47.820950000000003
C      50.009849999999993     47.866050000000001     48.399549999999998
C      47.906249999999993     46.446750000000002     47.072049999999997
C      48.362850000000002     49.660350000000001     48.761150000000008
C      46.313749999999992     47.996949999999998     48.293849999999999
C      50.349950000000000     46.552550000000004     47.894950000000001
C      49.132649999999991     45.847250000000003     47.196050000000007
C      47.038149999999995     50.098750000000003     49.133350000000000
C      45.843449999999997     49.118450000000003     49.014249999999997
H      50.780149999999999     48.417849999999994     48.690850000000005
H      47.058450000000001     46.201650000000001     46.480650000000004
H      49.339649999999999     50.288249999999998     48.848549999999996
H      45.563150000000000     47.230450000000005     48.166450000000005
H      51.132950000000001     45.914349999999999     48.195749999999997
H      49.089649999999999     44.922150000000002     46.761050000000004
H      46.870649999999991     51.077849999999998     49.519349999999996
H      44.867049999999999     49.256149999999998     49.279050000000005
