18

C      48.571499999999986     47.930399999999992     48.210199999999993
C      47.253399999999999     47.815199999999997     47.487600000000000
C      49.728099999999998     48.299699999999994     47.374899999999997
C      47.405900000000003     47.981400000000001     45.985500000000002
C      48.386299999999991     47.999800000000000     49.642099999999999
C      46.020899999999997     47.363300000000002     48.217799999999997
C      50.023200000000003     48.439699999999995     46.020399999999995
C      48.624200000000002     48.594400000000000     45.488900000000001
C      47.190100000000001     47.801700000000004     50.365099999999998
C      45.912099999999995     47.439500000000002     49.645499999999998
H      50.642200000000003     48.449100000000008     47.753399999999999
H      46.805199999999999     47.538699999999999     45.259500000000003
H      49.313600000000008     47.859500000000004     50.282200000000003
H      45.088499999999996     47.204799999999999     47.844200000000001
H      50.933000000000007     48.557200000000002     45.444199999999995
H      48.911799999999999     48.845099999999995     44.503000000000000
H      47.260300000000001     47.996000000000002     51.497000000000000
H      45.066999999999993     47.154900000000005     50.048099999999991
