18

C      48.607749999999996     48.432849999999988     47.532499999999985
C      48.069349999999993     47.441850000000002     48.515899999999995
C      48.907249999999998     48.340050000000005     46.111699999999992
C      47.700849999999996     46.257149999999996     47.784799999999997
C      48.461649999999999     49.832650000000001     47.905699999999996
C      47.863849999999992     47.625550000000004     49.952699999999993
C      48.924450000000000     46.977950000000007     45.485899999999994
C      48.297750000000001     46.114149999999995     46.432799999999993
C      48.106949999999991     50.132050000000007     49.304099999999998
C      47.968049999999998     49.023849999999996     50.376399999999997
H      48.926849999999995     49.354150000000004     45.570499999999996
H      47.034450000000000     45.400949999999995     48.037299999999995
H      48.905650000000001     50.646950000000004     47.271999999999998
H      47.310949999999998     46.791650000000004     50.648499999999991
H      48.965550000000000     46.634249999999994     44.496699999999997
H      48.326050000000002     45.028850000000006     46.333699999999993
H      47.996149999999993     50.971149999999994     50.373499999999986
H      47.849550000000001     49.054050000000004     51.503300000000003
