77

C      49.224099999999993     50.801948999999986     48.108149999999995
C      50.335699999999996     50.667749000000001     49.147750000000002
C      45.843200000000003     49.451149000000001     51.583050000000007
C      47.876899999999999     50.507948999999996     48.462350000000008
C      49.986399999999996     49.963848999999996     50.447850000000010
C      46.215399999999995     49.925449000000000     50.328550000000000
C      47.647100000000002     50.050149000000005     49.820450000000001
C      48.612999999999992     49.614848999999992     50.866149999999998
C      49.418999999999990     51.310449000000006     46.661749999999998
C      50.575799999999994     52.051648999999998     46.390250000000002
C      51.630400000000002     52.323948999999999     47.359349999999999
C      51.773299999999999     50.559248999999994     48.913850000000004
C      48.572299999999991     52.004749000000004     44.547550000000001
C      48.437300000000000     53.225549000000001     43.841149999999999
C      49.811199999999992     52.822448999999992     44.226950000000002
C      46.631899999999995     50.817649000000003     47.503349999999998
C      46.914200000000001     50.607348999999999     45.831949999999999
C      51.430299999999995     49.647948999999997     50.884350000000005
C      52.474499999999999     49.375449000000003     49.613449999999993
C      52.426600000000001     51.135148999999998     47.976450000000000
C      44.569799999999994     48.514448999999999     51.919550000000008
C      47.256399999999992     54.205748999999997     43.503450000000001
C      48.412299999999995     50.964049000000003     45.600949999999997
C      48.661099999999998     42.702348999999998     52.697049999999997
C      48.492500000000000     44.123749000000004     52.810450000000003
C      43.332500000000003     46.339748999999998     50.115250000000010
C      47.513100000000001     42.002848999999998     51.956650000000003
C      43.379599999999989     45.011649000000006     49.279549999999993
C      47.282899999999991     44.914148999999995     52.453250000000004
C      44.058199999999992     47.036349000000001     51.649049999999995
C      45.450399999999995     41.798849000000004     50.653849999999998
C      44.683599999999991     42.693648999999994     49.872550000000011
C      46.323000000000000     42.662148999999999     51.566450000000010
C      44.408700000000003     44.181149000000005     49.804150000000000
C      46.172300000000000     44.133049000000000     51.829349999999998
C      44.913899999999991     44.666748999999996     51.192149999999998
C      50.027099999999997     42.101949000000005     52.600349999999999
C      51.171900000000001     43.028948999999997     52.575250000000004
C      50.934800000000003     44.239448999999993     53.317750000000004
C      49.554699999999990     44.837448999999992     53.415950000000002
C      47.215600000000002     46.323848999999996     52.982950000000010
C      44.695000000000000     46.035449000000000     50.704650000000008
C      45.716699999999996     46.717348999999999     49.922350000000002
H      45.340499999999999     50.266649000000001     49.549950000000003
H      52.307899999999997     53.021648999999996     46.875750000000004
H      46.067099999999989     51.772148999999999     47.819150000000000
H      45.786899999999996     50.173648999999997     47.891550000000002
H      46.530099999999997     49.561048999999997     46.040950000000002
H      46.059300000000000     50.919648999999993     45.101550000000003
H      51.642800000000001     50.417849000000004     51.590550000000000
H      51.537699999999994     48.820249000000004     51.612550000000006
H      52.188600000000001     48.412348999999992     49.184350000000002
H      53.531100000000002     49.670449000000005     49.802950000000003
H      53.427000000000000     50.682648999999998     47.650449999999999
H      51.375399999999992     52.998448999999994     48.331049999999998
H      47.191200000000002     55.086751000000007     44.079650000000001
H      46.053800000000003     53.883149000000003     43.348950000000002
H      47.166699999999999     54.207348999999994     42.410049999999998
H      48.686999999999991     49.935248999999999     45.373750000000001
H      47.863499999999995     41.020049000000000     51.687549999999995
H      42.468899999999998     44.659749000000005     48.606349999999999
H      45.857399999999991     40.913248999999993     50.350549999999991
H      44.284799999999997     41.855148999999997     49.044549999999994
H      50.361299999999993     41.154848999999999     52.018549999999998
H      52.270400000000002     42.889748999999995     52.267250000000004
H      51.737699999999997     44.844949000000000     53.589950000000002
H      49.618899999999989     45.982248999999996     53.465049999999998
H      47.992600000000003     47.047449000000000     52.953749999999992
H      46.340799999999994     46.980848999999992     52.848350000000003
H      43.525100000000002     46.529049000000001     52.573649999999994
H      45.525399999999998     47.575248999999999     49.352849999999997
H      46.107599999999998     45.894349000000005     49.023250000000004
H      46.733199999999989     47.356448999999998     50.504550000000002
H      42.854399999999991     47.086949000000004     49.498850000000012
N      50.760599999999990     52.886149000000003     45.187649999999998
O      44.085199999999993     49.507848999999993     52.327649999999998
S      47.730399999999996     49.731448999999998     52.483749999999993
