18

C      47.839949999999995     47.361699999999992     47.780699999999996
C      47.228949999999998     48.468699999999998     48.540599999999998
C      49.244349999999997     46.937200000000004     47.971999999999994
C      47.994249999999994     49.063199999999995     49.707299999999989
C      47.027050000000003     46.832400000000000     46.571500000000000
C      46.181849999999997     49.288100000000000     48.080500000000001
C      50.002650000000003     47.470199999999998     49.057199999999995
C      49.347749999999991     48.569699999999997     49.890900000000002
C      46.008150000000001     47.836700000000008     46.144499999999994
C      45.783450000000002     49.194000000000003     46.669799999999995
H      49.351250000000007     45.984099999999998     47.370999999999995
H      47.607750000000003     50.065600000000003     50.218999999999994
H      47.225849999999994     45.934399999999997     45.868499999999997
H      45.738250000000001     49.829200000000000     48.880399999999995
H      51.008150000000001     47.234000000000002     49.252299999999991
H      49.875050000000002     48.911400000000000     50.863699999999994
H      45.663449999999997     47.653499999999994     45.136300000000006
H      44.991849999999999     49.667600000000000     46.126499999999993
