18

C      47.497414999999990     47.718599999999995     47.718199999999996
C      48.852825000000003     48.448500000000003     48.253600000000006
C      47.424634999999995     46.716299999999997     46.639700000000005
C      49.994924999999988     47.486100000000000     48.050200000000004
C      46.393816999999991     48.639599999999994     48.036299999999997
C      48.854334999999992     49.336100000000002     49.374400000000009
C      48.688784999999996     46.192500000000003     46.327799999999996
C      49.893984999999994     46.408300000000004     47.142800000000008
C      46.294592999999992     49.565400000000004     49.068100000000001
C      47.586564999999993     49.934400000000004     49.653700000000001
H      46.827434999999994     46.668600000000005     45.775700000000001
H      50.819224999999996     47.645200000000003     48.832599999999999
H      45.180775000000004     48.801899999999996     47.656300000000002
H      49.793464999999991     49.580999999999996     49.810000000000002
H      48.890334999999993     45.511400000000002     45.436700000000002
H      50.712564999999991     45.779199999999996     47.167299999999997
H      45.308875000000015     50.231100000000005     49.354500000000002
H      47.639544999999991     50.488599999999998     50.563299999999998
