17

C      47.582999999999991     48.525699999999986     48.223299999999995
C      48.345500000000001     47.309700000000007     48.260799999999996
C      48.454599999999999     49.734800000000007     48.283500000000011
C      49.723999999999990     47.488299999999995     48.768099999999997
C      46.170400000000001     48.880399999999995     47.836600000000004
C      47.359799999999993     46.255899999999997     47.711400000000005
C      49.722999999999999     49.845500000000001     48.650700000000008
C      50.574799999999996     48.672399999999996     48.748300000000008
C      45.360100000000003     47.856399999999994     47.295099999999998
C      46.062299999999993     46.537000000000006     47.366400000000006
H      47.873899999999999     50.618499999999997     48.312000000000005
H      50.267200000000003     46.609399999999994     48.883500000000005
H      45.840599999999995     49.975899999999996     47.744599999999998
H      48.000500000000002     45.310199999999995     47.914300000000004
H      50.565299999999993     50.689800000000005     48.982599999999998
H      51.456000000000003     48.721299999999999     49.398800000000001
H      44.543999999999997     48.263599999999997     46.601199999999999
