18

C      47.873649999999991     47.788849999999996     47.319699999999997
C      48.268950000000004     48.571850000000005     48.507199999999997
C      48.753850000000000     47.420150000000000     46.268299999999996
C      49.657849999999996     48.866149999999998     48.778899999999993
C      46.487849999999995     47.422350000000002     47.096400000000003
C      47.119749999999996     48.640449999999994     49.439200000000000
C      50.128649999999993     47.838150000000006     46.643900000000002
C      50.579750000000004     48.674650000000007     47.725300000000004
C      45.469250000000002     47.566150000000000     48.089099999999988
C      45.797550000000001     48.138750000000002     49.343500000000006
H      48.365250000000003     46.667549999999999     45.574399999999997
H      49.965249999999997     49.326150000000005     49.829000000000008
H      46.202249999999992     47.225050000000003     46.124499999999998
H      47.185749999999999     49.332450000000001     50.425600000000003
H      50.868049999999997     47.606950000000005     45.847400000000007
H      51.619550000000004     48.902149999999999     47.759099999999989
H      44.380449999999996     47.395150000000001     48.156599999999997
H      45.176850000000002     48.166050000000006     50.077799999999996
