18

C      47.992049999999999     48.137649999999994     48.689849999999986
C      47.750850000000000     47.962250000000004     47.162250000000000
C      49.250450000000001     48.628950000000003     49.283549999999991
C      48.810950000000005     48.363650000000014     46.418250000000000
C      47.014250000000004     47.612450000000003     49.679450000000003
C      46.473050000000001     47.297050000000006     46.784849999999992
C      50.297150000000002     49.099150000000002     48.371849999999995
C      50.025750000000002     49.032750000000014     46.986049999999992
C      45.936449999999994     46.867450000000005     49.121049999999997
C      45.663849999999996     46.580750000000002     47.665449999999993
H      49.548550000000006     48.431350000000002     50.280649999999994
H      48.617149999999995     48.328850000000010     45.378850000000000
H      47.133349999999993     47.660850000000003     50.621150000000000
H      46.342050000000000     47.531850000000006     45.766850000000005
H      51.276250000000005     49.869049999999994     48.668650000000000
H      50.961249999999993     49.452650000000013     46.603250000000003
H      45.297950000000000     46.370450000000005     49.852149999999995
H      44.723749999999995     46.130950000000006     47.249250000000004
