18

C      48.026099999999992     47.706449999999990     47.290449999999993
C      47.260199999999998     48.403449999999999     48.413450000000005
C      49.083100000000002     48.412249999999993     46.550249999999998
C      47.651399999999995     49.844450000000002     48.526149999999994
C      47.927800000000005     46.267549999999993     46.894950000000001
C      46.523700000000005     47.505549999999992     49.378449999999994
C      49.227300000000000     49.860449999999993     46.592250000000000
C      48.420200000000008     50.618249999999996     47.570550000000004
C      47.430000000000000     45.579649999999994     48.047249999999998
C      46.815500000000000     46.201749999999997     49.215449999999997
H      49.679400000000001     47.877749999999999     45.812350000000002
H      46.993400000000001     50.712749999999993     49.341749999999998
H      48.420999999999999     45.428450000000005     46.099150000000002
H      45.945999999999998     47.943350000000002     50.190549999999995
H      50.054000000000002     50.390049999999995     45.809450000000005
H      48.060800000000000     51.554049999999997     47.316749999999992
H      47.315600000000003     44.445950000000003     48.069650000000003
H      46.535499999999999     45.456349999999993     49.892350000000000
