18

C      47.399049999999988     48.176499999999990     48.743999999999986
C      47.749049999999997     48.638669999999998     47.447000000000003
C      48.175049999999992     48.830520000000000     49.736900000000006
C      48.838049999999996     49.598340000000000     47.051599999999993
C      46.661249999999995     46.864670000000004     48.844700000000003
C      46.917749999999998     48.011310000000002     46.364099999999993
C      49.070249999999994     49.989339999999991     49.506900000000002
C      49.464549999999996     50.272219999999997     48.087999999999994
C      45.920949999999998     46.157890000000002     47.768100000000004
C      46.052749999999996     46.884840000000004     46.516700000000000
H      47.941249999999989     48.198740000000008     50.655000000000001
H      49.068849999999991     49.376719999999999     46.047799999999995
H      46.646949999999997     46.461150000000004     49.851100000000002
H      47.017149999999994     48.408149999999999     45.344999999999999
H      49.790249999999993     49.637200000000000     50.492499999999993
H      50.351450000000007     50.979239999999997     47.950100000000006
H      45.875649999999993     45.020760000000003     48.114999999999995
H      45.648549999999993     46.258020000000002     45.644700000000000
