18

C      47.534899999999986     47.666449999999990     48.745949999999993
C      48.061699999999988     48.070650000000001     47.334250000000004
C      46.778999999999996     46.508849999999995     48.793150000000004
C      48.105499999999992     47.587549999999993     45.999249999999996
C      47.627399999999994     48.773749999999993     49.873249999999992
C      48.881499999999996     49.311949999999996     47.661650000000002
C      46.785699999999991     46.004049999999992     47.389749999999999
C      47.121299999999998     46.522549999999995     46.109749999999998
C      48.598599999999990     49.779749999999993     50.061249999999994
C      49.117899999999992     50.129350000000002     48.846950000000000
H      46.170299999999997     46.106749999999991     49.582349999999998
H      48.752599999999987     47.719149999999999     45.026450000000004
H      47.311899999999994     48.792749999999998     50.819749999999992
H      49.334399999999988     49.453749999999999     46.735650000000000
H      46.295699999999997     45.060850000000002     47.150249999999993
H      46.952899999999993     46.070250000000001     45.179849999999995
H      48.479199999999992     50.544449999999998     50.973549999999996
H      49.829700000000003     50.939149999999998     48.874749999999999
