18

C      48.890580000000000     47.953599999999987     48.054049999999989
C      47.326200000000000     48.317799999999991     48.238750000000003
C      49.313100000000006     47.373899999999992     49.323749999999997
C      46.382490000000004     47.952399999999997     49.317149999999998
C      49.577119999999994     48.146900000000002     46.950949999999999
C      46.750960000000006     49.069400000000002     47.204850000000000
C      48.348360000000000     47.214399999999998     50.473450000000007
C      46.875270000000000     47.322699999999998     50.443149999999996
C      48.693430000000006     48.419499999999999     45.780649999999994
C      47.363119999999995     49.018900000000002     45.824249999999999
H      50.399910000000006     47.253299999999996     49.361950000000000
H      45.395530000000008     48.075699999999998     49.156849999999999
H      50.604469999999992     48.131500000000003     46.449249999999999
H      45.687520000000006     49.243499999999997     47.400749999999995
H      48.947900000000004     46.756500000000003     51.265750000000004
H      46.075159999999997     46.915799999999990     51.082649999999994
H      49.141959999999997     48.306599999999989     44.734249999999996
H      46.807519999999997     49.118799999999993     44.766549999999995
