18

C      48.227599999999988     47.989969999999992     48.683999999999990
C      48.505599999999994     47.732080000000003     47.299700000000001
C      47.138099999999994     47.072380000000003     49.135399999999997
C      47.881899999999995     46.618960000000001     46.388799999999996
C      48.751599999999996     49.100180000000009     49.437100000000001
C      49.375099999999996     48.708250000000000     46.516300000000001
C      46.233699999999999     46.205849999999998     48.400199999999998
C      46.861499999999999     45.905070000000002     47.046700000000001
C      49.518599999999992     50.023550000000000     48.765099999999990
C      49.974499999999992     49.673349999999999     47.420499999999997
H      47.065700000000000     47.574150000000003     50.014499999999998
H      48.303899999999999     46.327750000000002     45.449100000000001
H      48.668199999999999     49.220540000000000     50.550899999999999
H      49.633299999999998     48.503840000000011     45.506000000000000
H      45.530799999999999     45.466170000000005     48.760999999999996
H      46.414199999999994     45.142949999999999     46.341299999999997
H      49.849999999999994     50.857050000000001     49.352900000000005
H      50.469200000000001     50.187250000000006     46.611800000000002
