18

C      48.235450000000000     47.353149999999992     48.405749999999998
C      47.713950000000004     48.436250000000001     47.462449999999997
C      49.555650000000007     46.929450000000003     48.397349999999996
C      48.614349999999995     48.595450000000000     46.299250000000008
C      47.429949999999998     46.734849999999994     49.666750000000000
C      46.344450000000002     48.984650000000002     47.585950000000004
C      50.622450000000008     47.225449999999995     47.419549999999994
C      49.977849999999997     47.984250000000003     46.293050000000001
C      46.196149999999996     47.340249999999997     49.609550000000006
C      45.498550000000002     48.047650000000004     48.410750000000000
H      49.618450000000003     46.421049999999994     49.313350000000007
H      48.142350000000000     49.100849999999994     45.519749999999995
H      47.867150000000002     46.332250000000002     50.442050000000002
H      45.984349999999999     49.667749999999998     46.839250000000000
H      51.585450000000002     46.887249999999995     47.421849999999999
H      50.521149999999999     48.429050000000004     45.435150000000000
H      45.677349999999997     47.144549999999995     50.564850000000000
H      44.414549999999998     48.077950000000001     48.624649999999995
