18

C      47.554184999999997     47.709699999999998     47.691549999999999
C      48.510195000000010     48.670499999999997     48.086749999999995
C      47.949475000000000     46.295400000000008     47.331550000000007
C      49.965195000000008     48.357400000000005     47.934650000000005
C      46.059925000000000     47.914300000000004     47.682550000000006
C      48.184815000000000     49.979400000000005     48.372050000000002
C      49.425874999999991     46.012400000000007     47.237750000000005
C      50.396835000000003     47.056100000000008     47.525750000000002
C      45.608544999999999     49.214000000000006     47.885850000000005
C      46.684775000000002     49.980800000000009     48.529449999999997
H      47.099865000000001     45.526500000000006     47.395949999999999
H      50.662365000000001     49.097799999999999     48.413750000000007
H      45.413254999999999     47.053300000000000     47.344449999999995
H      49.075505000000000     50.787500000000001     48.592449999999999
H      49.705105000000003     44.969400000000000     47.104849999999999
H      51.498874999999998     46.788800000000002     47.753850000000000
H      44.501125000000002     49.392600000000009     47.920450000000002
H      46.142434999999999     51.030600000000000     48.895150000000001
