18

C      47.804049999999989     48.431364999999985     48.515049999999995
C      48.769849999999998     47.672084999999996     47.972250000000003
C      47.154449999999990     49.620615000000001     47.890950000000004
C      48.910949999999993     47.852014999999994     46.450450000000004
C      47.184649999999998     48.012014999999991     49.744249999999994
C      49.184949999999994     46.474435000000000     48.620350000000002
C      47.457449999999987     49.759074999999996     46.511849999999995
C      48.243149999999993     48.810464999999994     45.648550000000000
C      47.616949999999996     46.846935000000002     50.491950000000003
C      48.593049999999998     46.026624999999996     49.879849999999990
H      46.567049999999988     50.472115000000002     48.452150000000003
H      49.409549999999989     46.981614999999991     45.836550000000003
H      46.255350000000000     48.508115000000004     49.935149999999993
H      49.744650000000000     45.673274999999990     48.174049999999994
H      46.971950000000000     50.802945000000008     46.218649999999997
H      48.307049999999997     49.024874999999994     44.586150000000004
H      47.253949999999996     46.535784999999990     51.413849999999996
H      49.022649999999992     45.197054999999992     50.366749999999996
