48

C      47.392899999999990     50.580449999999992     46.703249999999997
C      47.734399999999994     50.247349999999997     45.132750000000001
C      47.279599999999995     47.127350000000007     46.914149999999992
C      48.412499999999994     45.961650000000006     46.960949999999997
C      49.668499999999995     49.495350000000002     50.733149999999995
C      50.699199999999998     48.483249999999998     50.698450000000008
C      47.513300000000001     48.346350000000001     47.787050000000008
C      49.512400000000000     46.205849999999998     47.846249999999998
C      48.502699999999990     49.249750000000006     50.059449999999998
C      50.425399999999996     47.370850000000004     50.015050000000002
C      48.468199999999996     48.190849999999998     48.934950000000001
C      49.520600000000002     47.251950000000008     48.895449999999997
C      46.186699999999995     46.914150000000006     45.910350000000008
C      46.206399999999995     45.568350000000009     45.253050000000002
C      47.365499999999997     44.714250000000007     45.048950000000005
C      48.501899999999992     44.963750000000005     46.015850000000000
C      51.140400000000000     51.029650000000004     51.986949999999993
C      51.959599999999995     49.920749999999998     52.261450000000011
C      51.793800000000005     48.696550000000002     51.540049999999994
C      45.231799999999993     48.043549999999996     45.674750000000003
C      44.128299999999996     46.311050000000009     44.555250000000001
C      44.005499999999998     47.717150000000004     45.143950000000004
C      45.041199999999996     45.352750000000000     44.355249999999998
C      42.888300000000001     46.981949999999998     44.266649999999998
C      46.634799999999998     49.427650000000000     47.600750000000005
C      45.370799999999996     49.129950000000008     46.750949999999989
C      44.449199999999998     50.160650000000004     46.505449999999996
C      52.750000000000000     47.667650000000009     51.423649999999995
H      48.339399999999998     50.912649999999999     47.450749999999999
H      46.603600000000000     51.331150000000008     46.748850000000004
H      47.055099999999996     50.399450000000002     44.396749999999997
H      47.940299999999993     49.209350000000001     45.311250000000001
H      48.584699999999998     50.818849999999998     44.644149999999996
H      49.526399999999995     52.156149999999997     50.792749999999998
H      50.271599999999992     45.494550000000004     47.825749999999999
H      47.531099999999995     49.816950000000006     50.240650000000002
H      51.134599999999992     46.571849999999998     50.007949999999994
H      47.432899999999989     43.843850000000003     44.590750000000000
H      49.239199999999997     44.401949999999999     46.024249999999995
H      51.512699999999995     51.968249999999998     52.479650000000007
H      52.892499999999998     50.196150000000003     52.810149999999993
H      44.728200000000001     44.332949999999997     44.118849999999995
H      46.182499999999997     49.985349999999997     48.597449999999995
H      52.686599999999999     46.755949999999999     50.788049999999998
H      53.648200000000003     47.683450000000008     52.035649999999990
N      50.143699999999995     51.051150000000007     51.154849999999996
O      43.991799999999998     51.146349999999998     46.243549999999999
O      42.351799999999997     47.076450000000008     43.189850000000007
