18

C      48.623449999999991     47.155149999999992     47.386899999999997
C      48.061049999999994     47.903950000000002     48.491400000000006
C      47.790549999999996     46.144749999999995     46.953000000000003
C      46.663149999999995     48.026350000000001     48.906700000000008
C      49.948450000000001     47.568750000000001     46.702600000000004
C      48.823450000000001     49.028950000000002     49.107999999999997
C      46.406849999999999     46.386249999999997     47.148900000000005
C      45.764549999999993     47.193949999999994     48.225400000000000
C      50.605349999999994     48.623449999999998     47.267100000000006
C      49.947649999999989     49.527250000000002     48.242600000000003
H      48.305449999999993     45.650050000000000     46.154400000000003
H      46.153649999999992     48.775550000000003     49.444499999999998
H      50.329850000000000     46.883249999999997     46.000200000000000
H      48.326749999999997     49.676750000000006     49.999800000000000
H      45.811749999999996     45.684450000000005     46.433200000000006
H      44.682549999999999     47.176349999999992     48.075800000000008
H      51.317450000000001     48.924849999999999     46.680000000000000
H      50.782649999999997     50.349950000000000     48.587800000000009
