14

C      49.115049999999989     47.384649999999986     48.517510000000001
C      49.347849999999994     46.775549999999996     47.290610000000001
C      48.397649999999999     47.866950000000003     47.313710000000000
C      48.677049999999994     47.093750000000000     45.889109999999988
C      49.312650000000005     48.140149999999991     49.944039000000004
C      47.214050000000000     48.874449999999996     47.151109999999989
H      49.285449999999997     47.772350000000003     45.239809999999991
H      47.863149999999997     46.355649999999997     45.622209999999995
H      49.407349999999994     49.180949999999996     50.088951999999992
H      49.716149999999999     47.602249999999998     50.760190000000009
H      48.276150000000001     48.371349999999993     50.213858999999999
H      46.283850000000001     48.237250000000003     47.427209999999988
H      47.478849999999994     49.644350000000003     46.462809999999990
H      46.736849999999997     49.226749999999996     48.150009999999995
