57

C      47.978099999999991     48.102824999999996     51.021399999999993
C      47.814799999999991     49.306755000000010     50.199500000000000
C      45.185800000000000     45.786434999999997     47.956800000000001
C      45.883099999999999     47.014305000000007     47.564999999999998
C      47.045499999999990     46.999674999999996     50.925899999999999
C      46.979999999999990     49.100434999999990     48.998800000000003
C      45.531899999999993     45.542085000000000     49.312700000000000
C      46.868499999999997     48.619214999999997     45.585200000000000
C      46.075000000000003     46.739165000000000     49.844399999999993
C      46.376700000000000     47.768655000000010     48.803699999999999
C      49.022999999999996     48.006905000000003     51.933700000000002
C      49.890100000000004     49.225234999999998     52.210700000000003
C      49.972600000000000     50.355575000000002     51.210599999999999
C      48.776600000000002     50.443285000000003     50.346199999999996
C      46.063199999999995     47.471055000000007     46.189599999999999
C      45.801099999999991     45.344875000000002     45.018599999999999
C      44.752399999999994     44.685045000000002     45.851399999999998
C      44.667699999999996     44.791955000000002     47.238999999999997
C      47.900599999999997     45.906395000000003     51.683700000000002
C      49.231999999999999     46.614725000000007     52.600399999999993
C      51.259399999999999     49.156165000000001     52.780400000000000
C      46.323499999999996     50.443624999999997     48.546199999999999
C      47.440199999999990     51.580555000000004     48.500699999999995
C      48.830199999999991     51.432954999999993     49.130600000000001
C      45.566299999999998     44.328095000000005     49.989199999999997
C      45.225899999999996     47.542115000000010     43.603800000000000
C      45.839599999999990     46.763755000000003     44.857900000000001
C      49.825599999999994     50.998755000000003     48.006699999999995
C      46.687299999999993     47.067315000000008     43.879199999999997
C      45.272700000000000     49.127375000000001     43.123199999999997
H      50.778799999999990     51.059204999999992     50.911000000000001
H      46.263700000000000     44.929294999999996     44.247999999999998
H      44.411000000000001     43.650905000000009     45.402900000000002
H      44.039900000000003     44.095115000000007     47.903899999999993
H      48.260999999999996     45.069595000000007     50.872599999999998
H      49.233300000000000     46.858185000000006     53.670900000000003
H      50.241399999999999     46.026615000000007     52.195799999999998
H      51.960099999999997     50.055774999999997     52.806500000000000
H      51.845500000000001     48.322724999999991     52.706699999999998
H      45.571799999999996     50.731544999999997     49.218800000000002
H      46.088200000000001     49.883245000000002     47.435899999999997
H      46.960700000000003     52.507954999999995     48.919399999999996
H      47.814499999999995     51.690185000000000     47.459099999999999
H      49.313699999999997     52.369595000000004     49.276600000000002
H      47.322400000000002     45.276485000000008     52.267399999999995
H      46.234499999999997     43.838634999999996     50.763800000000003
H      45.600099999999998     43.492045000000005     49.238000000000000
H      44.444499999999991     46.915835000000001     43.138199999999998
H      50.670499999999990     50.234544999999997     48.111199999999997
H      48.870499999999993     50.851405000000000     47.230499999999999
H      50.314899999999994     51.979555000000005     47.766399999999997
H      47.641099999999994     46.492945000000006     44.152400000000000
H      47.196500000000000     47.162585000000007     42.727400000000003
H      44.551000000000002     49.282664999999994     42.329099999999997
H      46.268000000000001     49.300475000000006     42.905799999999999
H      44.575000000000003     49.571235000000001     43.810099999999998
O      47.325899999999990     49.421504999999996     45.001199999999997
