18

C      48.807854999999989     48.142839999999993     47.645499999999998
C      47.521144999999997     47.905320000000003     48.478600000000000
C      48.608165000000000     48.234269999999995     46.135899999999992
C      46.280394999999999     48.398009999999999     47.858400000000003
C      50.003644999999999     47.936890000000005     48.456099999999992
C      47.584434999999999     47.477689999999996     49.808800000000005
C      47.182375000000000     48.257180000000005     45.629199999999997
C      45.984845000000000     48.095179999999999     46.467200000000005
C      50.301974999999992     47.727369999999993     49.877899999999997
C      48.959325000000000     47.342449999999999     50.355000000000004
H      49.593335000000003     48.124910000000000     45.693699999999993
H      45.475155000000001     48.824500000000000     48.378500000000003
H      50.833584999999999     47.597059999999999     47.943799999999996
H      46.791155000000003     47.175500000000000     50.538700000000006
H      47.209674999999997     48.568020000000004     44.633200000000002
H      44.902205000000002     48.126419999999996     46.202299999999994
H      51.097794999999998     47.206019999999995     49.990499999999997
H      48.705795000000002     47.267809999999997     51.366799999999998
