18

C      47.440599999999996     48.047100000000000     48.530159999999995
C      48.352000000000004     48.253999999999998     47.495702999999999
C      48.042000000000002     48.010500000000000     49.859520000000003
C      49.744200000000006     48.705800000000004     47.658438000000004
C      46.058199999999999     47.737500000000004     48.036939000000004
C      48.113200000000006     48.084200000000003     46.152719999999995
C      49.444199999999995     48.425600000000010     50.042200000000001
C      50.297400000000003     48.980100000000000     48.970310000000005
C      45.766900000000000     47.447300000000006     46.740719999999989
C      46.869999999999997     47.438800000000008     45.777320000000024
H      47.643799999999999     47.566900000000011     50.712970000000006
H      50.524199999999993     48.837899999999998     46.898520000000005
H      44.926099999999998     47.441099999999999     48.422330000000002
H      48.826200000000000     48.279900000000005     45.288120000000006
H      49.930599999999998     48.126200000000004     51.129879999999993
H      51.296700000000001     49.121000000000002     49.069510000000001
H      44.703299999999999     47.376700000000007     46.473420000000026
H      46.768300000000004     46.878999999999998     44.870120000000007
