18

C      48.410349999999994     48.320849999999993     47.785049999999991
C      47.305649999999993     47.353549999999998     48.069050000000004
C      48.034550000000003     49.687950000000001     47.831450000000004
C      46.023549999999993     48.158850000000001     48.345849999999999
C      49.710749999999997     47.940650000000005     47.455449999999999
C      47.685650000000003     45.937049999999999     47.830550000000002
C      47.130249999999997     50.323549999999997     48.750450000000001
C      45.970449999999992     49.535450000000012     48.813350000000000
C      49.991149999999998     46.567850000000007     47.139550000000000
C      48.899849999999994     45.566450000000003     47.209949999999992
H      48.914349999999992     50.169150000000002     47.286649999999995
H      45.482750000000003     47.257350000000002     48.606049999999996
H      50.613149999999997     48.450950000000006     47.226649999999992
H      46.961649999999999     45.113950000000003     48.041650000000004
H      47.234649999999995     51.383650000000003     49.209049999999991
H      45.053549999999994     49.812850000000012     49.273049999999998
H      50.946450000000006     46.124849999999995     46.818449999999999
H      49.465449999999997     44.616349999999997     46.726950000000002
