6

C      48.597449999999995     48.047550000000001     47.283049999999989
C      48.057549999999999     47.722049999999996     48.627049999999997
H      48.144650000000006     48.865849999999995     46.678049999999999
H      49.027350000000006     47.344149999999999     46.540449999999993
H      48.614650000000005     47.134150000000005     49.459550000000007
H      46.972649999999994     47.942050000000009     48.853450000000009
