18

C      48.670099999999998     48.472094999999996     47.696799999999996
C      47.411300000000004     47.590074999999999     47.803199999999997
C      49.840400000000002     47.664785000000002     47.633800000000001
C      47.281100000000002     46.216074999999996     47.328399999999995
C      48.670800000000007     49.957304999999998     47.874900000000004
C      46.269700000000007     48.104765000000000     48.425099999999993
C      49.858400000000003     46.256965000000001     47.540900000000001
C      48.564400000000006     45.593714999999996     47.157299999999999
C      47.399400000000007     50.509135000000008     48.456499999999998
C      46.370400000000004     49.514765000000004     48.767900000000004
H      50.740800000000007     48.169674999999998     47.741499999999995
H      46.336300000000001     45.567895000000000     47.216799999999999
H      49.462200000000010     50.708224999999999     47.636500000000005
H      45.257000000000005     47.625634999999996     48.494999999999997
H      50.742999999999995     45.852004999999998     48.156900000000000
H      48.491200000000006     44.502935000000001     46.833999999999996
H      47.295900000000003     51.497064999999999     48.719100000000005
H      45.436100000000003     50.104764999999993     49.166000000000004
