18

C      47.649249999999995     47.570049999999995     48.009255999999993
C      48.799450000000000     48.415650000000007     48.172564999999999
C      47.205050000000007     46.694650000000003     49.033270000000002
C      49.563449999999996     48.340150000000001     49.512709999999998
C      47.248150000000003     48.222349999999999     45.577050000000007
C      48.974849999999996     49.414050000000010     47.137149999999998
C      47.976949999999995     46.630350000000000     50.281259999999996
C      49.285249999999998     47.306450000000005     50.524579999999993
C      46.882950000000001     47.436450000000001     46.829950000000011
C      48.201450000000001     49.246950000000005     45.863550000000011
H      46.321249999999999     46.162750000000010     49.145220000000002
H      50.180950000000003     49.267950000000006     49.585990000000002
H      46.923150000000000     48.139050000000005     44.534150000000004
H      49.905350000000006     50.113650000000000     47.592756999999999
H      47.347450000000002     45.886350000000000     50.973819999999996
H      49.671250000000008     47.339950000000009     51.465849999999996
H      45.819049999999997     46.673950000000012     46.927149999999997
H      48.657249999999998     50.071850000000005     45.261650000000024
