18

C      47.390249999999995     48.137449999999994     48.114599999999996
C      48.960650000000008     48.286649999999995     48.167699999999996
C      46.286949999999997     48.990650000000002     47.553100000000001
C      49.132250000000006     49.597750000000005     47.711299999999994
C      46.682949999999998     46.903950000000002     48.453199999999995
C      49.594450000000002     47.231150000000000     48.787499999999994
C      46.626049999999999     50.318650000000005     47.128900000000002
C      48.143949999999997     50.352450000000005     47.159499999999994
C      47.474750000000007     45.829949999999997     49.076200000000000
C      48.904950000000007     46.149749999999997     49.214900000000000
H      45.315649999999998     48.780149999999999     47.720500000000001
H      50.156550000000003     49.841849999999994     47.561499999999995
H      45.704250000000009     46.952750000000002     48.155000000000001
H      50.684350000000002     47.140250000000002     48.793999999999997
H      46.035850000000003     51.135649999999998     46.787199999999999
H      48.163350000000001     51.176450000000003     46.379000000000005
H      46.936749999999996     44.823549999999997     49.476399999999998
H      49.285249999999998     45.269549999999995     49.620999999999995
