18

C      48.157549999999993     47.809899999999992     48.929599999999994
C      47.855249999999998     47.949100000000001     47.409699999999994
C      48.865549999999999     46.661699999999996     49.452800000000003
C      48.775750000000002     47.239900000000006     46.565199999999997
C      47.632149999999996     49.048800000000000     49.629200000000004
C      47.285750000000000     49.104200000000006     46.799100000000003
C      49.432850000000002     45.876900000000006     48.463400000000000
C      49.476749999999996     46.260700000000000     47.053699999999999
C      46.717150000000004     50.026800000000009     49.006499999999996
C      46.691150000000000     50.172300000000007     47.600600000000000
H      48.857849999999999     46.329499999999996     50.439399999999999
H      48.813350000000000     47.494399999999999     45.560600000000001
H      48.365549999999999     49.697199999999995     50.124599999999994
H      47.278649999999999     49.497000000000000     45.789999999999999
H      50.047049999999999     45.039299999999997     48.573100000000004
H      49.895349999999993     45.868700000000004     46.148599999999995
H      46.391950000000001     50.960700000000003     49.470399999999991
H      45.952950000000001     50.895099999999999     47.206799999999994
