6

C      47.281499999999994     48.074123000000000     47.972149999999999
C      48.613200000000006     48.029773000000006     48.142449999999997
H      46.866299999999995     47.630597000000009     47.007750000000001
H      46.640000000000001     48.162222999999997     48.910849999999996
H      49.359999999999999     47.742419999999996     47.341849999999994
H      49.276399999999995     48.369402999999991     48.992249999999999
