18

C      47.156849999999991     48.080399999999990     47.834999999999987
C      48.500549999999997     47.853400000000008     47.573099999999997
C      46.703749999999999     47.244399999999999     48.906299999999987
C      49.352950000000000     46.610900000000001     47.753499999999995
C      46.519050000000000     49.413100000000000     47.856499999999997
C      49.287549999999989     48.762000000000000     46.839099999999995
C      47.524650000000001     46.101600000000005     49.208599999999997
C      48.718550000000000     45.554299999999998     48.578999999999994
C      47.297750000000001     50.386300000000006     47.144500000000001
C      48.533949999999997     49.978999999999999     46.452999999999996
H      45.743650000000002     47.504400000000004     49.499099999999999
H      50.211049999999993     46.521799999999999     47.205099999999995
H      45.590949999999999     49.799099999999996     48.335999999999999
H      50.409050000000001     48.698400000000007     46.520899999999997
H      47.245749999999994     45.518699999999995     50.119199999999999
H      49.384250000000002     44.665800000000004     48.809099999999994
H      46.797849999999997     51.334199999999996     47.180899999999994
H      48.872749999999989     50.968299999999999     45.880800000000001
