18

C      48.224099999999993     48.281299999999995     47.620549999999994
C      47.424400000000006     47.366500000000002     48.419050000000013
C      48.632999999999996     48.011499999999998     46.244550000000004
C      46.806700000000006     46.371499999999997     47.628349999999998
C      48.608400000000003     49.488199999999992     48.404250000000005
C      47.194000000000003     47.825000000000003     49.823450000000008
C      47.932299999999998     46.951399999999992     45.430650000000000
C      47.262100000000004     46.082599999999999     46.209150000000008
C      48.324000000000012     49.861099999999993     49.795349999999999
C      47.743499999999997     48.854799999999997     50.573850000000007
H      49.732600000000005     48.352900000000005     46.195050000000009
H      46.267399999999995     45.569199999999995     48.123750000000001
H      49.046499999999995     50.320800000000006     47.938450000000003
H      46.508499999999998     47.028999999999996     50.217150000000004
H      48.249600000000015     46.444800000000001     44.389049999999997
H      47.089100000000002     45.235600000000005     45.725149999999999
H      48.736100000000008     50.764399999999995     50.145550000000000
H      47.699200000000005     49.033699999999996     51.610950000000003
