42

C      46.818599999999989     48.756899999999987     48.402699999999996
C      47.111700000000006     48.937999999999995     49.755099999999999
C      51.867300000000007     47.359000000000002     48.006300000000010
C      52.074999999999996     47.613800000000005     49.391700000000000
C      47.881999999999998     48.225900000000003     47.521300000000011
C      48.418299999999995     48.992100000000001     50.347800000000007
C      50.440900000000006     47.466799999999999     47.389900000000011
C      50.810800000000008     48.257200000000005     49.977600000000010
C      49.245899999999999     47.981699999999996     47.969900000000010
C      49.438300000000005     48.452000000000005     49.455800000000011
C      45.367700000000006     48.665299999999995     47.933900000000008
C      44.244700000000002     49.014699999999998     48.630000000000010
C      44.736700000000006     49.641100000000002     49.912300000000002
C      46.085799999999999     49.503300000000003     50.567400000000006
C      53.965499999999999     46.239500000000000     47.974000000000004
C      53.913100000000007     46.281699999999994     49.434000000000012
C      53.132100000000001     47.123799999999996     50.349900000000005
C      45.303400000000003     48.516900000000000     46.440200000000004
C      43.972799999999999     48.730899999999998     45.808099999999996
C      42.894799999999996     49.437300000000000     46.448000000000008
C      42.944399999999995     49.423899999999996     47.927900000000008
C      46.293100000000003     47.916500000000006     45.651200000000003
C      47.666400000000003     47.748600000000003     46.082999999999998
C      48.753700000000002     46.979800000000004     45.422300000000007
C      50.160299999999999     47.258500000000005     45.913799999999995
C      52.910900000000005     46.752400000000002     47.192500000000010
C      42.181000000000004     49.623799999999996     49.130099999999999
H      48.652600000000000     49.466100000000004     51.343600000000009
H      50.724799999999995     48.682099999999998     50.987000000000009
H      43.952400000000004     50.341799999999999     50.463500000000010
H      46.065199999999997     49.968799999999995     51.576300000000003
H      54.754300000000008     45.658200000000001     49.881500000000003
H      53.328799999999994     47.288999999999994     51.334600000000009
H      43.942000000000000     48.765599999999999     44.754000000000005
H      42.033200000000001     49.949000000000005     45.835200000000000
H      46.139000000000003     47.686200000000007     44.500100000000003
H      48.417099999999998     46.508199999999995     44.423699999999997
H      51.085900000000002     47.078099999999999     45.176800000000000
H      52.979499999999994     46.649499999999996     46.110200000000006
H      54.967099999999995     45.806400000000004     47.677199999999999
H      41.032900000000005     49.624199999999995     48.946300000000008
H      42.666699999999999     49.771499999999996     50.032600000000002
