18

C      48.297799999999988     48.845259999999996     48.020549999999993
C      47.652299999999997     47.548270000000002     48.307649999999995
C      47.482299999999995     49.600380000000001     47.133049999999997
C      46.319299999999998     47.028702999999993     47.802849999999992
C      49.440100000000001     49.203009999999992     48.574249999999992
C      48.274299999999997     46.592145000000002     49.150750000000002
C      46.260300000000001     49.189430000000002     46.478749999999991
C      45.741799999999998     47.914929999999998     46.867750000000001
C      50.191100000000006     48.048429999999996     49.225349999999992
C      49.627399999999994     46.761291000000000     49.661850000000001
H      48.116900000000001     50.417389999999997     46.736149999999995
H      45.769599999999997     46.134810000000002     48.425249999999991
H      49.766300000000001     50.245710000000003     48.695849999999993
H      47.812299999999993     45.582610000000003     49.503549999999990
H      45.903999999999996     49.710229999999996     45.648049999999998
H      44.669399999999996     47.664259999999999     46.590549999999993
H      51.330600000000004     47.976199999999992     49.409549999999996
H      50.142200000000003     45.870909999999981     50.351950000000002
