18

C      47.866834999999995     47.453799999999994     48.781459999999996
C      48.459635000000006     48.276499999999999     47.740690000000001
C      47.422825000000003     46.084800000000001     48.392269999999996
C      48.459684999999993     47.645299999999992     46.449749999999995
C      47.820674999999994     48.483199999999997     49.906300000000002
C      48.728444999999994     49.730800000000002     47.868619999999993
C      47.476794999999996     45.666200000000003     47.038160000000005
C      47.502195000000000     46.665599999999998     45.933359999999993
C      48.201295000000002     49.851200000000006     50.186300000000003
C      48.682474999999997     50.516800000000003     49.067029999999988
H      46.835305000000005     45.942399999999999     49.279689999999988
H      48.666995000000000     48.005899999999997     45.537819999999996
H      47.764505000000000     47.817999999999998     50.718069999999997
H      48.895724999999999     50.345300000000002     47.019819999999996
H      46.932265000000001     44.674800000000005     47.086079999999995
H      47.426564999999997     46.153800000000004     44.901380000000003
H      47.828014999999994     50.493200000000002     51.098619999999997
H      49.164694999999995     51.325199999999995     49.072320000000005
