18

C      47.825499999999991     47.524449999999987     48.549549999999996
C      47.292899999999996     48.499949999999998     47.714250000000000
C      48.345700000000001     47.506649999999993     49.948550000000004
C      47.228299999999997     49.755350000000007     48.559350000000002
C      48.040500000000002     46.232749999999996     47.748750000000001
C      47.128099999999996     48.383949999999999     46.297750000000001
C      48.339599999999997     48.853149999999999     50.565050000000006
C      47.652099999999997     50.046750000000003     49.897449999999999
C      47.884999999999998     46.122550000000004     46.390350000000005
C      47.617699999999992     47.329750000000004     45.572250000000004
H      48.684300000000000     46.436549999999997     50.018949999999997
H      47.103599999999993     50.528250000000000     47.602950000000000
H      48.076099999999990     45.349750000000000     48.231150000000007
H      46.861499999999999     49.381950000000003     46.034750000000003
H      49.138500000000001     48.947649999999996     51.334849999999996
H      47.505999999999993     50.982150000000004     50.407150000000009
H      47.836499999999994     45.017849999999996     45.974449999999997
H      47.257100000000001     47.033950000000004     44.665150000000004
