18

C      47.962849999999989     48.551249999999996     48.732899999999994
C      47.441850000000002     47.742649999999998     47.595100000000002
C      48.538849999999996     49.853450000000002     48.145400000000002
C      47.294750000000008     48.166650000000004     46.232500000000002
C      47.665149999999997     48.211050000000000     50.172400000000010
C      47.036649999999995     46.414350000000006     47.984499999999997
C      48.302450000000007     50.200449999999996     46.725400000000000
C      47.691649999999996     49.421849999999999     45.771599999999999
C      47.624750000000006     46.797350000000002     50.377700000000004
C      47.212850000000003     46.001750000000001     49.378500000000003
H      49.177350000000004     50.856349999999999     48.484299999999998
H      46.896249999999995     47.439050000000002     45.621499999999997
H      48.126750000000001     48.626049999999999     51.272099999999995
H      46.822649999999996     45.626449999999998     47.039900000000003
H      48.767350000000008     51.122549999999997     46.492300000000000
H      47.619150000000005     49.670250000000003     44.675899999999999
H      47.591449999999995     46.392150000000001     51.324100000000001
H      46.863950000000003     44.877450000000003     49.703800000000001
