5

C      47.873349999999988     47.801699999999990     47.857699999999994
H      47.329349999999998     48.805099999999996     48.135799999999996
H      48.204249999999995     47.476100000000002     48.894299999999994
H      48.924950000000003     47.950400000000002     47.105700000000006
H      47.075049999999997     47.194900000000004     47.382200000000005
