58

C      49.241899999999987     46.522949999999994     48.037349999999989
C      49.143200000000000     45.930250000000001     46.676449999999996
C      46.562999999999995     50.126250000000006     45.648149999999994
C      48.350199999999994     47.692650000000008     48.270850000000003
C      48.333599999999997     46.558650000000007     45.725149999999992
C      46.729700000000001     49.693049999999999     46.972749999999998
C      47.246800000000000     49.001049999999999     44.849250000000005
C      47.560099999999998     48.453349999999993     47.158250000000002
C      47.663699999999999     47.763650000000005     45.862549999999992
C      50.038199999999996     45.852849999999997     49.129849999999998
C      51.110099999999996     44.981850000000001     48.925750000000001
C      50.856900000000003     44.237050000000004     47.553149999999995
C      49.816799999999994     44.618050000000004     46.504550000000002
C      50.283099999999997     46.508649999999996     50.555950000000003
C      51.275900000000000     46.270550000000000     51.650449999999999
C      52.078399999999995     45.106249999999996     51.277549999999998
C      52.002699999999997     44.584350000000001     49.995650000000005
C      49.152399999999993     47.525749999999995     50.792549999999999
C      48.569600000000001     48.256149999999998     49.614150000000002
C      51.248600000000003     42.927849999999999     47.377450000000003
C      50.222400000000000     42.570349999999998     45.228249999999996
C      49.461999999999996     43.844050000000003     45.245249999999992
C      47.987900000000003     45.639249999999997     44.632050000000000
C      48.967300000000002     44.534950000000002     44.098350000000003
C      49.336499999999994     48.152549999999998     52.087550000000000
C      48.209600000000002     49.180249999999994     43.719450000000002
C      46.630299999999998     48.606450000000002     43.489449999999998
C      44.069700000000005     51.426049999999996     47.747449999999994
C      45.235999999999997     52.190050000000006     46.557049999999997
C      44.667700000000004     52.838450000000002     47.661650000000002
C      44.589999999999996     53.933349999999997     44.936050000000002
C      45.577999999999996     52.056450000000005     44.125750000000004
C      45.727600000000002     51.366049999999994     45.383749999999999
C      44.619199999999999     53.551150000000000     46.311450000000001
H      46.097799999999999     50.118050000000004     47.665649999999992
H      51.251299999999993     46.605049999999999     52.589750000000002
H      52.897900000000000     44.667850000000001     51.947250000000004
H      52.644500000000001     43.737349999999999     49.565049999999992
H      48.365999999999993     49.295750000000005     49.701349999999998
H      51.833700000000000     42.538850000000004     48.240149999999993
H      50.059899999999992     41.880050000000004     44.318949999999994
H      48.079199999999993     46.557350000000007     43.918349999999997
H      47.016500000000001     45.232050000000001     45.054549999999999
H      49.806599999999996     45.055550000000004     43.547850000000004
H      48.347799999999999     43.892550000000000     43.483249999999991
H      48.384499999999996     50.301750000000006     43.389350000000000
H      48.924599999999991     48.474849999999996     44.005549999999992
H      45.982999999999997     49.330149999999996     42.886350000000000
H      46.612199999999994     47.556249999999999     43.279949999999992
H      44.447299999999991     50.541450000000005     47.933150000000005
H      43.102100000000000     51.225150000000006     47.561450000000001
H      45.661399999999993     53.073150000000005     48.236349999999995
H      43.861200000000004     54.922450000000005     44.571750000000002
H      45.903100000000002     51.308150000000005     43.288450000000005
H      51.088000000000001     41.077549999999995     46.135649999999991
N      51.085100000000004     42.105049999999999     46.253949999999996
N      45.138699999999993     53.268250000000002     43.878350000000005
O      49.741499999999995     48.487150000000000     53.113650000000000
