8

C      47.538849999999996     47.515649999999994     48.332699999999988
C      48.626049999999999     48.552349999999997     48.013499999999993
H      48.784250000000007     48.879449999999999     46.781199999999998
H      47.737050000000004     46.453350000000000     47.802899999999994
H      47.547150000000002     47.065950000000001     49.218800000000002
H      48.039250000000003     49.546650000000000     47.912599999999998
H      49.540450000000000     48.609150000000000     48.634899999999988
H      46.459550000000000     48.005449999999996     48.154499999999999
