18

C      48.863984999999992     47.726049999999987     47.503399999999992
C      47.393985000000001     48.345450000000000     47.650800000000004
C      49.425184999999999     48.332949999999997     46.409700000000001
C      46.580984999999998     48.807450000000003     46.620999999999995
C      49.534984999999999     46.860950000000003     48.429899999999996
C      46.921585000000000     48.044950000000000     49.000200000000000
C      48.751584999999999     49.506550000000004     45.742699999999999
C      47.378284999999998     49.651949999999999     45.681500000000000
C      48.842784999999999     46.443950000000001     49.743899999999996
C      47.665185000000001     47.303650000000005     49.965599999999995
H      50.531885000000003     48.262850000000014     46.371400000000001
H      45.468114999999997     48.818750000000009     46.861300000000000
H      50.383085000000008     46.609849999999994     48.155899999999988
H      46.248184999999999     48.960050000000010     49.233899999999998
H      49.230384999999998     50.208150000000003     45.151699999999998
H      46.483384999999998     50.228650000000002     45.198699999999995
H      49.238385000000001     45.771349999999998     50.513899999999992
H      47.372884999999997     46.763450000000006     50.848300000000002
