18

C      48.506799999999991     47.707249999999995     48.235399999999998
C      47.339799999999997     48.203850000000003     47.374800000000000
C      48.321200000000005     48.258750000000006     49.614200000000004
C      46.417900000000003     49.284250000000000     47.708599999999997
C      49.383200000000002     46.790350000000004     47.741599999999998
C      47.301699999999997     47.233750000000001     46.315800000000003
C      47.427500000000009     49.327950000000001     50.034200000000006
C      46.763999999999996     50.024050000000003     48.933000000000000
C      49.375299999999996     45.829049999999995     46.566099999999999
C      48.236900000000006     46.246549999999999     45.861899999999999
H      48.939400000000006     47.767449999999997     50.252200000000009
H      45.766800000000003     49.652349999999998     46.774000000000008
H      50.233199999999997     46.379649999999998     48.295999999999999
H      46.295600000000007     47.214150000000004     45.837300000000006
H      47.407600000000002     49.624350000000007     51.093600000000002
H      46.313800000000001     51.073350000000005     48.840100000000000
H      49.987899999999996     44.926649999999995     46.352600000000002
H      48.210599999999999     45.716350000000006     44.906399999999998
