18

C      48.001219999999989     48.466449999999995     48.455140000000000
C      48.823520000000002     47.697249999999997     47.408060000000006
C      47.271420000000006     49.745849999999997     48.338630000000009
C      49.008720000000011     48.550550000000001     46.214030000000008
C      47.273850000000010     47.733449999999998     49.554079999999999
C      48.963320000000010     46.404649999999997     48.074910000000003
C      47.846320000000006     50.497149999999998     47.269810000000007
C      48.572420000000008     49.903050000000000     46.118060000000000
C      47.373760000000004     46.305549999999997     49.822000000000003
C      48.218820000000008     45.558650000000000     48.949390000000008
H      46.396979999999999     50.089450000000006     48.875709999999998
H      49.311419999999998     48.077249999999999     45.365710000000007
H      46.557890000000000     48.306049999999999     50.206599999999995
H      49.603020000000001     46.018850000000000     47.376140000000007
H      47.343730000000008     51.468449999999997     46.950000000000003
H      48.605519999999999     50.597649999999994     45.340810000000005
H      46.880540000000011     45.739449999999998     50.659189999999995
H      48.495220000000003     44.531550000000003     49.049109999999999
