18

C      47.723119999999994     48.052149999999997     47.366679999999995
C      48.218209999999999     47.959550000000007     48.835149999999999
C      47.571979999999996     46.819950000000006     46.668979999999998
C      48.702410000000000     46.692850000000007     49.413129999999995
C      47.430689999999998     49.178750000000001     46.505150000000000
C      48.278509999999997     49.305550000000004     49.433880000000002
C      47.724289999999996     45.552550000000004     47.306719999999999
C      48.231409999999997     45.583650000000006     48.627439999999993
C      47.553640000000001     50.423550000000006     47.216380000000001
C      47.970810000000000     50.431850000000004     48.595870000000005
H      47.130690000000001     46.779950000000007     45.645099999999999
H      48.869309999999999     46.712950000000006     50.476579999999998
H      47.187420000000003     49.053750000000001     45.494320000000002
H      47.816909999999993     49.381750000000004     50.505679999999998
H      47.547179999999997     44.619550000000004     46.754910000000002
H      48.387109999999993     44.540550000000003     48.904939999999996
H      47.171340000000001     51.389250000000004     46.747399999999999
H      47.966309999999993     51.459449999999997     48.971919999999997
