55

C      48.977849999999989     47.144299999999987     49.111349999999995
C      49.596550000000008     48.460999999999999     48.522050000000007
C      45.448549999999997     48.123400000000004     45.727850000000004
C      45.931849999999997     49.382099999999994     45.242350000000002
C      47.760850000000005     46.881399999999999     48.399050000000003
C      49.092250000000007     49.314500000000010     47.448050000000009
C      45.918650000000000     47.174199999999999     46.742450000000005
C      47.004350000000002     49.995400000000004     45.914950000000005
C      47.243150000000000     47.641499999999994     47.304950000000005
C      47.720650000000006     49.005600000000001     46.816150000000007
C      49.726650000000006     46.370999999999995     50.016450000000006
C      50.993049999999997     47.029200000000003     50.567149999999998
C      51.823350000000005     47.811900000000009     49.830449999999999
C      51.005150000000000     48.656599999999997     48.922750000000008
C      44.242149999999995     47.590699999999998     44.836150000000004
C      43.861249999999998     48.404100000000000     43.677850000000007
C      44.164550000000006     49.966099999999997     43.466949999999997
C      45.193150000000003     50.398799999999994     44.263950000000008
C      48.876249999999999     45.034999999999997     50.113650000000007
C      49.416449999999998     44.384399999999999     51.258449999999996
C      50.359450000000010     45.332300000000004     52.038950000000000
C      51.217449999999999     46.583100000000002     51.818750000000009
C      47.666650000000004     44.600700000000003     49.435850000000002
C      46.889650000000003     45.549400000000006     48.737850000000009
C      45.485349999999997     45.245099999999994     48.475450000000009
C      45.124650000000003     46.116799999999998     47.313550000000006
C      43.435350000000000     46.645300000000006     45.544250000000005
C      43.796450000000007     45.856399999999994     46.663650000000004
C      50.082149999999999     50.563699999999997     47.231250000000003
C      51.437250000000006     51.023099999999999     47.834150000000008
C      52.082149999999999     49.769599999999997     48.484450000000010
C      47.584150000000008     51.271400000000000     45.685150000000007
C      50.132050000000007     49.164500000000004     46.275850000000005
C      52.621350000000007     51.658900000000003     47.138350000000003
H      52.827050000000000     48.152100000000004     50.192250000000001
H      43.019050000000007     48.186700000000002     42.991650000000007
H      43.859049999999996     50.946299999999994     42.866349999999997
H      45.530150000000006     51.388099999999994     43.970349999999996
H      48.952650000000006     43.422399999999996     51.312849999999997
H      50.726849999999999     45.087800000000001     53.133650000000003
H      52.195950000000011     46.452799999999996     52.210850000000008
H      47.144149999999996     43.727599999999995     49.940250000000006
H      42.481750000000005     46.837100000000007     45.231250000000003
H      43.074050000000000     45.260800000000003     47.276650000000004
H      49.407449999999997     51.231900000000010     46.790950000000009
H      51.402950000000004     51.866600000000005     48.754249999999999
H      52.662549999999996     49.268200000000007     47.730550000000008
H      52.911749999999998     49.958500000000001     49.325350000000000
H      44.812550000000002     44.572500000000005     49.037950000000009
H      49.925849999999997     49.439599999999999     45.221850000000003
H      51.143150000000006     48.619399999999999     46.545249999999996
H      52.963549999999998     51.882199999999997     48.093850000000003
H      52.211050000000000     52.577600000000004     46.430450000000008
H      53.518249999999995     51.168199999999999     46.351250000000007
O      47.941850000000002     52.346699999999998     45.792249999999996
