18

C      48.218299999999992     48.739295999999989     47.442439999999984
C      48.024500000000003     47.505696000000000     48.337789999999998
C      49.133200000000002     48.633495999999994     46.284279999999995
C      49.088200000000001     46.436995999999994     47.749119999999991
C      47.402100000000004     49.786096000000001     47.719669999999994
C      46.950199999999995     47.513396000000000     49.324589999999993
C      49.563299999999998     47.133296000000001     46.602479999999993
C      50.538799999999995     46.898895999999993     47.526330000000002
C      46.341499999999996     49.842196000000001     48.680889999999991
C      45.991000000000000     48.640695999999991     49.479389999999995
H      48.940399999999997     49.466195999999997     45.777209999999997
H      48.802900000000008     45.278495999999990     47.818899999999992
H      47.460499999999996     50.721504000000010     47.076089999999994
H      46.408000000000001     46.530395999999996     49.735089999999985
H      49.220299999999995     46.502195999999998     45.805229999999995
H      50.864000000000004     47.854795999999993     47.412029999999994
H      45.774400000000000     50.666162999999997     48.692889999999991
H      45.135999999999996     48.879095999999990     50.222790000000003
