18

C      48.546849999999992     48.367000000000004     48.299449999999993
C      47.633350000000000     47.306500000000007     48.791449999999998
C      48.728950000000005     49.862800000000000     48.547950000000000
C      46.403250000000000     48.088900000000002     49.206950000000006
C      49.607550000000010     47.584300000000006     47.637349999999998
C      47.416449999999998     45.916500000000006     48.503450000000015
C      47.577050000000000     50.463000000000001     48.933650000000014
C      46.525849999999998     49.505700000000012     49.192149999999998
C      49.540650000000007     46.256999999999998     47.036850000000001
C      48.380350000000000     45.537700000000008     47.461350000000010
H      49.735550000000003     50.569099999999999     48.449250000000006
H      45.493749999999999     47.633299999999998     49.508150000000001
H      50.506250000000001     48.198200000000007     47.133949999999999
H      46.380049999999997     45.362299999999998     48.913150000000016
H      47.392550000000000     51.400399999999998     48.907250000000005
H      45.650150000000004     50.186500000000002     49.501950000000008
H      50.298650000000002     45.846400000000010     46.491849999999999
H      47.955150000000003     44.599600000000002     46.918250000000000
