18

C      47.295854999999989     47.375649999999993     48.466849999999994
C      47.743985000000009     48.759650000000001     48.656250000000000
C      47.859144999999998     46.314749999999997     49.188649999999988
C      48.715845000000002     49.155149999999999     49.616549999999997
C      46.255894999999995     47.096449999999997     47.400749999999995
C      47.176384999999996     49.925549999999994     48.136249999999997
C      49.146145000000004     46.567349999999998     49.717649999999999
C      49.548344999999998     47.975450000000002     49.868350000000000
C      45.946325000000002     48.422649999999997     46.677549999999997
C      46.314194999999998     49.774549999999998     46.903549999999996
H      47.384645000000006     45.223350000000003     49.187950000000001
H      48.935195000000007     50.262250000000002     50.013249999999992
H      45.913885000000008     46.054849999999995     46.989849999999997
H      47.219535000000008     50.769150000000003     48.776549999999993
H      49.695345000000003     45.796950000000002     50.293450000000000
H      50.677845000000005     48.186749999999996     49.716449999999988
H      45.322154999999995     48.736249999999991     45.706550000000000
H      46.065235000000001     50.776649999999997     46.242649999999998
