55

C      49.233649999999983     49.063549999999999     47.311449999999994
C      48.467950000000002     50.087649999999996     48.094650000000009
C      45.164649999999995     45.885549999999995     47.354550000000003
C      44.367549999999994     46.868650000000002     48.151750000000000
C      48.514349999999993     48.023849999999996     46.624250000000004
C      47.074950000000001     49.669449999999998     48.541450000000005
C      46.524850000000001     46.361050000000006     46.749450000000003
C      45.036949999999990     48.088350000000005     48.390250000000002
C      47.186949999999996     47.572149999999993     47.127749999999999
C      46.302149999999997     48.576250000000002     48.045650000000002
C      50.714950000000002     49.288950000000000     46.977049999999998
C      51.220150000000004     50.506249999999994     47.535350000000001
C      50.425550000000001     51.593750000000000     48.322949999999999
C      49.046149999999997     51.268950000000004     48.757550000000002
C      44.741950000000003     44.453649999999996     47.110050000000001
C      43.434950000000001     44.224549999999994     47.602049999999998
C      42.419550000000001     45.071749999999994     48.170450000000010
C      43.062749999999994     46.464150000000004     48.329349999999998
C      51.504850000000005     48.305049999999994     46.258049999999997
C      52.868449999999996     48.451849999999993     46.081249999999997
C      53.511949999999999     49.463250000000002     46.864649999999997
C      52.716049999999996     50.610749999999996     47.428249999999998
C      50.744549999999990     47.138149999999996     45.510050000000000
C      49.253749999999997     47.140450000000001     45.803350000000002
C      48.437749999999994     45.884249999999994     45.487450000000003
C      47.107349999999997     45.391649999999998     45.826549999999997
C      45.554649999999995     43.461650000000006     46.367750000000001
C      46.636650000000003     44.008949999999999     45.420650000000002
C      46.122249999999994     50.421549999999996     50.860650000000000
C      46.881850000000000     50.794650000000004     49.563450000000003
C      47.817749999999990     51.976249999999993     49.310650000000003
C      51.152949999999990     52.685649999999995     48.755650000000003
C      46.131850000000000     51.791150000000002     48.869850000000000
H      44.318249999999992     48.686449999999994     48.851149999999997
H      43.157249999999991     43.088949999999997     47.387250000000002
H      41.324749999999995     45.017250000000004     48.387849999999993
H      42.317049999999995     46.986050000000006     48.631149999999998
H      54.675250000000005     49.769549999999995     46.816249999999997
H      53.298850000000002     51.495249999999999     48.065849999999998
H      48.870750000000001     45.360050000000001     44.692650000000000
H      46.320949999999996     42.740250000000003     46.619950000000003
H      47.420749999999998     43.262950000000004     45.129249999999999
H      46.051949999999991     43.841350000000006     44.418050000000001
H      45.990049999999997     49.258750000000006     50.901550000000000
H      45.113950000000003     50.903750000000002     50.832050000000002
H      46.469949999999997     50.582549999999998     52.007550000000002
H      47.913950000000000     53.059349999999995     49.570549999999990
H      52.919650000000004     46.633349999999993     43.992449999999998
H      50.510150000000010     53.259749999999997     49.613450000000000
H      52.247649999999993     52.987949999999998     48.495849999999997
H      45.269750000000002     52.131450000000001     49.410249999999998
H      45.830249999999992     51.564750000000004     47.705350000000003
H      44.952149999999989     43.093050000000005     45.485950000000003
O      51.107150000000004     46.183850000000007     44.750349999999997
S      53.815150000000003     46.879549999999995     45.148049999999998
