18

C      47.367480000000000     47.631399999999992     47.698050000000002
C      48.636159999999990     48.108800000000002     47.227450000000005
C      46.242260000000002     48.514099999999999     48.097549999999998
C      48.742720000000006     49.530900000000003     47.616450000000000
C      47.299840000000003     46.212599999999995     47.542650000000009
C      49.997270000000000     47.419399999999996     47.292150000000007
C      46.474999999999994     49.882099999999994     48.318650000000005
C      47.793099999999995     50.428300000000007     48.098849999999999
C      48.461150000000004     45.309899999999999     47.498249999999999
C      49.730710000000002     46.007400000000004     47.411050000000003
H      45.074370000000002     48.153499999999994     48.052050000000008
H      49.816000000000003     49.728499999999997     47.338350000000005
H      46.198229999999995     45.693799999999996     47.715750000000000
H      50.925629999999998     48.052999999999997     47.045050000000003
H      45.683380000000000     50.603099999999998     48.954949999999997
H      48.003869999999992     51.628100000000003     48.320250000000001
H      48.481310000000008     44.371899999999997     48.129150000000010
H      50.525390000000002     45.309600000000003     47.294950000000000
