27

C      49.458299999999994     46.377299999999991     45.490299999999991
C      50.005399999999995     46.375399999999999     46.805000000000000
C      47.305700000000002     49.258299999999998     47.491699999999987
C      48.227999999999994     47.113199999999999     45.422599999999996
C      48.108599999999996     49.137400000000007     48.717499999999994
C      49.170900000000003     48.146700000000003     48.978199999999994
C      45.855999999999995     48.845700000000001     47.223299999999988
C      49.377399999999994     47.276100000000007     47.784599999999990
C      46.922499999999999     48.753499999999995     46.256299999999989
C      48.219099999999997     48.011400000000002     46.593399999999995
C      47.458399999999997     49.855700000000006     49.765099999999997
C      48.330100000000002     50.004799999999996     50.952700000000000
C      49.650800000000004     49.430200000000006     50.995299999999993
C      50.207499999999996     48.611499999999999     49.913499999999992
C      50.676699999999997     46.200400000000002     47.894900000000000
C      45.323799999999991     48.299700000000009     48.485899999999994
H      44.226500000000001     48.679900000000011     48.668799999999997
H      50.215699999999998     45.850299999999997     44.590899999999998
H      47.694900000000004     47.126700000000000     44.335799999999999
H      46.383499999999998     50.510399999999997     49.648999999999994
H      47.986599999999996     50.688600000000001     51.664200000000001
H      50.697500000000005     49.931500000000007     51.368499999999990
H      51.175399999999996     48.094699999999996     49.946099999999994
H      51.773499999999999     46.623199999999997     48.051299999999991
H      50.401199999999989     45.311399999999999     48.597999999999992
H      45.617400000000004     48.798900000000003     49.424399999999999
H      45.811099999999996     47.294100000000007     48.796499999999988
