45

C      48.426899999999996     42.577699999999993     52.292249999999989
C      49.768200000000000     42.632899999999999     52.951849999999993
C      50.227900000000005     43.943900000000006     52.534549999999996
C      48.005300000000005     45.054300000000005     51.852049999999991
C      49.409300000000002     45.134100000000004     52.147549999999995
C      47.603100000000005     43.712600000000002     51.914050000000003
C      46.999100000000006     46.005200000000009     49.854249999999993
C      47.134800000000006     44.409900000000000     48.203450000000004
C      46.526300000000006     51.433200000000006     46.732450000000000
C      47.575800000000001     46.944600000000001     48.914149999999992
C      44.906900000000000     53.293100000000003     45.745249999999999
C      47.349500000000006     45.452300000000001     47.029849999999996
C      46.655300000000004     50.013600000000004     47.401849999999996
C      47.023800000000001     45.816000000000003     43.345349999999996
C      48.139500000000005     45.943900000000006     44.587649999999996
C      45.468400000000003     43.652899999999995     49.788249999999991
C      45.696600000000004     52.444000000000003     46.666349999999994
C      46.176700000000004     44.845300000000002     49.365650000000002
C      47.208800000000004     50.362800000000000     46.078549999999993
C      47.588500000000003     46.729800000000004     47.464849999999998
C      47.976900000000001     47.727700000000006     46.261449999999996
C      47.341100000000004     48.934900000000006     46.639949999999999
C      47.711800000000004     45.062100000000001     45.619649999999993
C      48.422200000000004     47.326400000000000     44.969449999999995
C      47.299400000000006     46.326600000000006     51.229550000000003
C      44.929100000000005     53.173300000000005     47.356650000000002
H      48.039600000000000     41.600000000000001     51.865449999999996
H      50.247100000000003     41.711300000000001     53.461150000000004
H      51.183099999999996     44.105400000000003     52.895949999999999
H      49.817000000000000     46.161099999999998     52.037849999999992
H      46.738200000000006     42.994400000000006     51.584350000000001
H      47.993700000000004     47.887800000000006     49.103149999999999
H      44.856900000000003     54.399999999999999     45.546149999999997
H      46.302800000000005     50.130800000000001     48.590149999999994
H      44.816900000000004     43.322000000000003     50.731049999999996
H      45.402900000000002     42.766100000000002     49.098249999999993
H      47.477600000000002     44.049100000000003     45.402749999999997
H      49.017899999999997     45.500300000000003     44.234349999999992
H      48.663399999999996     48.141399999999997     44.100149999999999
H      46.130800000000001     46.541300000000000     51.822949999999992
H      47.815100000000001     47.320100000000004     51.366849999999999
H      45.850400000000000     53.400500000000001     45.238649999999993
H      44.860000000000007     53.437900000000006     48.328949999999992
O      47.528700000000001     43.289499999999997     47.907049999999998
O      46.252900000000004     45.641300000000001     42.538849999999996
