18

C      48.315214999999995     48.218399999999988     48.619349999999990
C      47.598354999999998     48.128899999999994     47.391649999999998
C      49.767404999999997     48.530700000000003     48.598649999999992
C      48.448214999999990     48.010899999999999     46.125149999999998
C      47.638935000000004     47.990900000000003     49.939849999999993
C      46.086545000000015     47.788300000000000     47.420950000000005
C      50.596604999999997     48.191399999999994     47.526449999999997
C      49.820475000000002     48.050599999999996     46.357849999999999
C      46.349748099999999     48.035099999999993     49.817849999999993
C      45.369045000000014     48.231900000000003     48.629549999999995
H      49.922994999999986     48.466299999999997     49.829849999999993
H      47.949375000000003     47.681800000000003     45.142449999999997
H      48.059375000000003     48.154000000000003     50.857550000000003
H      45.625845000000012     47.469299999999997     46.375050000000002
H      51.653354999999991     48.184699999999999     47.521749999999997
H      50.465234999999993     47.947300000000006     45.384349999999998
H      45.971444999999989     48.196700000000000     50.849350000000001
H      44.346645000000009     48.379299999999994     48.684049999999999
