18

C      47.206909999999993     48.287199999999999     47.779999999999994
C      48.574950000000001     48.140400000000000     47.251199999999997
C      46.052629999999994     47.370199999999997     47.518400000000000
C      48.885549999999995     46.953200000000010     46.428200000000004
C      47.060680000000005     49.588499999999996     48.503699999999995
C      49.856250000000003     48.827900000000000     47.589200000000005
C      46.356529999999992     46.008400000000009     47.090999999999994
C      47.763449999999992     45.928399999999996     46.456400000000002
C      48.317449999999994     50.170500000000004     48.928200000000004
C      49.672550000000001     49.745400000000004     48.623300000000000
H      45.046350000000004     47.668199999999999     47.729399999999998
H      50.125950000000003     46.757700000000000     46.284400000000005
H      46.057209999999998     50.213699999999989     48.685100000000006
H      50.953649999999996     48.301900000000003     47.481800000000007
H      45.460769999999997     45.368499999999997     47.031300000000002
H      47.875850000000000     44.974500000000006     46.390199999999993
H      48.194350000000000     51.025499999999994     49.715599999999995
H      50.580149999999989     50.442800000000005     48.790099999999995
