58

C      49.523599999999988     50.262699999999995     47.821649999999998
C      49.194600000000001     49.033500000000004     47.082550000000005
C      47.398499999999991     46.465999999999994     49.952850000000005
C      47.839400000000005     47.535299999999992     48.789850000000001
C      49.942100000000003     50.450199999999995     49.387349999999998
C      49.107499999999995     47.801000000000002     47.935250000000003
C      48.689299999999996     46.083299999999994     50.436850000000007
C      49.912799999999997     46.864999999999995     50.207150000000006
C      49.641900000000000     49.442599999999999     50.212150000000001
C      49.327099999999994     48.093000000000004     49.382050000000007
C      49.469900000000003     51.302899999999994     46.807950000000005
C      49.037199999999991     51.241199999999992     45.453450000000004
C      48.505299999999998     50.047600000000003     44.848250000000000
C      48.701799999999999     48.899900000000002     45.708550000000002
C      46.140700000000002     46.084899999999990     50.421450000000000
C      44.934300000000000     46.959599999999995     50.167850000000001
C      45.108399999999996     47.770699999999991     49.095650000000006
C      50.471200000000003     51.612399999999994     51.248149999999995
C      50.226499999999994     51.895899999999997     49.737750000000005
C      50.102100000000000     52.519099999999995     47.395050000000005
C      49.735700000000001     46.657499999999999     47.213650000000001
C      48.806999999999995     46.545299999999997     45.765550000000005
C      47.666300000000000     47.667999999999992     45.348750000000003
C      50.136199999999995     52.918499999999995     48.837150000000008
C      47.798200000000001     45.442899999999995     46.566550000000007
C      48.554600000000001     44.051000000000002     46.882250000000006
C      47.276900000000005     42.969499999999996     47.073750000000004
C      50.595300000000002     49.973699999999994     51.297650000000004
C      51.274999999999999     46.568399999999997     50.650550000000010
H      48.784199999999991     44.979599999999991     50.786750000000012
H      49.270999999999994     52.301899999999989     44.990350000000007
H      48.220499999999994     49.952699999999993     43.764550000000000
H      46.242899999999999     45.724400000000003     51.499550000000013
H      43.962700000000005     46.782299999999992     50.656950000000009
H      44.018599999999999     48.032699999999991     48.782349999999994
H      51.282199999999996     52.176399999999987     51.570750000000004
H      49.788400000000003     52.109199999999987     51.779550000000000
H      49.420700000000004     53.383899999999997     47.143950000000004
H      50.697899999999997     53.099599999999995     46.768950000000004
H      50.723199999999999     46.914900000000003     47.441850000000002
H      50.067299999999996     45.773799999999994     47.826550000000012
H      49.084700000000005     45.694000000000003     45.092650000000006
H      47.170099999999998     47.464600000000004     44.341650000000001
H      46.980699999999992     47.896199999999993     46.090050000000005
H      50.321000000000005     54.052999999999997     49.092150000000004
H      46.945699999999995     45.187600000000003     45.754750000000001
H      47.066300000000005     46.081699999999998     47.073750000000004
H      49.242899999999999     44.290799999999990     47.803850000000004
H      49.270499999999991     43.818899999999999     46.121150000000000
H      46.429099999999998     43.548500000000004     47.650250000000007
H      47.571599999999997     41.947000000000003     47.389450000000004
H      46.821099999999994     42.817700000000002     45.963850000000001
H      51.506999999999998     49.615799999999993     51.117050000000006
H      50.347900000000003     49.705199999999991     52.235450000000000
H      52.037299999999995     47.409499999999994     50.704050000000002
H      51.546299999999995     46.077699999999993     51.562450000000013
H      46.743500000000004     49.202600000000004     48.008450000000003
N      46.559099999999994     48.241699999999994     48.604450000000000
