18

C      48.176459999999992     48.729279999999996     48.677599999999991
C      48.549370000000003     47.950490000000002     47.521000000000001
C      47.262619999999998     49.731210000000004     49.190199999999990
C      47.844169999999998     48.649850000000001     46.564999999999998
C      49.052630000000001     48.287959999999998     49.755099999999999
C      49.345639999999996     46.690410000000000     47.238299999999995
C      46.299039999999998     50.026910000000001     48.352899999999998
C      46.744999999999997     49.500709999999998     46.911299999999997
C      49.859670000000001     47.113150000000005     49.692399999999992
C      49.862710000000000     46.407850000000003     48.526600000000002
H      47.475279999999998     50.152209999999997     50.144499999999994
H      47.902160000000002     48.283690000000000     45.502499999999998
H      49.180819999999997     49.077890000000011     50.479900000000001
H      49.439960000000006     46.620370000000001     46.158299999999997
H      45.486680000000000     50.526009999999999     48.730099999999993
H      45.881999999999998     49.755110000000002     46.195899999999995
H      50.506659999999997     46.632140000000000     50.497500000000002
H      50.513320000000000     45.473990000000001     48.475299999999997
