58

C      47.039899999999989     48.909049999999993     48.120889999999996
C      47.469799999999999     47.519449999999999     47.831189999999999
C      49.756599999999999     48.594250000000009     43.439200000000000
C      47.028799999999997     49.718250000000005     46.854489999999998
C      47.989399999999996     46.777149999999999     46.603790000000004
C      49.021200000000000     49.811450000000001     43.591410000000003
C      49.292700000000004     47.567550000000004     44.395290000000003
C      47.872300000000003     49.182150000000000     45.663190000000000
C      48.380699999999997     47.863050000000008     45.615690000000001
C      46.348199999999999     49.425750000000001     49.109690000000001
C      46.360700000000001     48.693450000000006     50.496989999999997
C      47.122199999999999     47.411750000000005     50.417490000000001
C      47.433299999999996     46.785450000000004     48.975390000000004
C      46.041899999999991     50.921150000000004     49.041390000000007
C      45.713599999999992     51.371249999999996     50.354290000000006
C      45.546199999999992     50.431050000000006     51.452489999999997
C      45.789499999999997     48.977950000000000     51.806690000000003
C      46.086800000000004     51.836950000000009     47.842390000000002
C      46.678099999999993     51.127450000000003     46.656790000000001
C      47.379899999999999     46.683050000000001     51.650689999999997
C      47.571899999999992     45.245550000000001     51.525390000000002
C      47.577800000000003     44.635950000000001     50.142390000000006
C      47.091799999999999     45.300750000000001     48.921689999999998
C      46.622599999999998     47.083450000000006     52.990690000000001
C      47.635699999999993     45.362650000000009     46.329790000000003
C      47.375399999999992     44.703049999999998     47.647190000000002
C      46.689599999999992     51.339350000000003     45.094490000000000
C      47.836399999999990     50.100050000000003     44.533190000000005
C      48.000300000000003     43.871650000000010     51.262389999999996
C      50.889199999999995     48.410950000000007     42.453690000000002
C      47.359299999999998     52.767550000000007     44.724890000000002
C      50.168599999999991     50.748350000000009     44.307290000000002
C      48.080800000000004     49.835749999999997     42.620500000000000
H      46.948100000000004     42.950449999999996     52.755090000000003
H      49.237000000000002     46.673150000000000     43.902690000000000
H      45.747499999999995     52.527549999999998     50.529190000000000
H      45.663300000000000     50.811349999999997     52.514890000000001
H      45.768700000000003     52.909250000000007     47.794490000000003
H      46.882799999999996     45.189250000000008     45.546289999999999
H      48.427999999999990     44.538450000000005     46.009490000000000
H      47.225999999999992     43.534650000000006     47.685990000000004
H      45.688299999999991     51.677749999999996     44.583890000000004
H      51.088199999999993     49.344950000000004     41.997170000000004
H      51.113999999999997     47.425850000000004     42.292880000000004
H      50.780499999999996     48.318850000000005     41.338509999999999
H      46.534299999999995     53.281849999999999     44.209490000000002
H      48.240400000000001     52.651649999999997     44.011589999999998
H      47.576999999999991     53.209449999999997     45.634490000000000
H      50.206699999999991     51.805850000000000     43.691090000000003
H      49.821999999999996     51.240150000000007     45.153289999999998
H      51.130699999999997     50.261150000000008     44.286490000000001
H      47.517699999999998     48.990749999999998     42.492530000000002
H      47.964700000000001     50.835250000000009     42.025620000000004
H      46.672400000000003     45.578650000000003     54.661490000000001
H      44.869300000000003     48.206949999999999     53.819190000000006
N      45.629299999999994     48.192749999999997     52.996189999999999
O      47.294099999999993     42.718150000000001     51.916589999999999
O      46.753200000000000     46.579450000000001     54.139589999999998
