5

C      48.067949999999996     47.751449999999991     48.012249999999995
H      48.630850000000002     47.727350000000001     47.044750000000001
H      47.161250000000003     47.298249999999996     48.323249999999994
H      48.838749999999997     47.662450000000007     48.955249999999999
H      47.464150000000004     48.701750000000004     47.981549999999991
