18

C      47.690399999999997     48.710699999999989     47.997949999999989
C      48.717500000000001     47.713700000000003     47.880749999999999
C      47.876400000000004     49.748400000000004     48.627749999999999
C      49.999899999999997     47.974199999999996     48.365749999999998
C      46.382099999999994     48.533699999999996     47.256449999999994
C      48.322800000000001     46.378200000000007     47.249850000000002
C      49.074699999999993     50.120199999999997     49.216850000000001
C      50.252899999999997     49.228499999999997     49.140650000000001
C      46.012699999999995     47.183400000000006     46.951450000000001
C      47.034399999999991     46.062899999999999     47.137049999999995
H      47.140500000000003     50.571200000000005     48.573149999999991
H      50.716799999999992     47.162999999999997     47.972850000000001
H      45.736599999999996     49.356800000000007     47.282249999999998
H      49.005099999999999     45.438900000000004     47.098649999999999
H      48.544200000000004     50.934200000000004     49.599550000000001
H      51.180099999999996     49.730400000000003     49.264449999999989
H      44.819900000000004     47.045900000000003     46.400449999999999
H      46.805599999999998     45.065799999999996     46.753049999999995
