5

C      48.015099999999990     47.977549999999994     48.175299999999993
H      47.239500000000000     47.235950000000003     48.140300000000003
H      48.410600000000009     48.313850000000002     47.145400000000002
H      48.760500000000000     47.293149999999997     48.415799999999997
H      48.115600000000008     48.764049999999997     48.854599999999998
