18

C      47.644049999999993     47.298399999999987     48.462149999999994
C      47.860350000000004     48.477100000000000     47.592850000000006
C      46.232750000000003     47.274499999999996     49.072449999999996
C      46.800650000000005     49.484499999999990     47.517749999999999
C      48.793150000000004     46.468999999999994     48.862450000000003
C      49.246350000000000     48.627400000000002     47.158449999999995
C      45.468850000000003     48.475099999999991     49.265449999999994
C      45.590650000000004     49.653199999999991     48.391550000000002
C      50.022450000000013     46.882999999999996     48.281349999999996
C      50.488650000000000     48.043399999999998     47.601649999999999
H      45.772450000000006     46.474599999999995     49.564850000000000
H      46.745750000000001     50.415100000000002     46.873849999999997
H      49.168749999999996     45.396099999999997     49.020550000000007
H      49.205750000000002     49.504799999999996     46.267649999999996
H      44.535750000000000     48.616599999999998     49.732350000000004
H      45.071350000000002     50.603900000000003     48.768049999999995
H      50.854750000000003     46.134199999999993     48.309249999999999
H      51.464250000000000     48.324699999999986     47.170250000000003
