42

C      44.285196999999997     49.152649999999994     46.733099999999993
C      49.629550000000009     47.016749999999995     48.415299999999995
C      50.628780000000006     47.548949999999998     47.552100000000003
C      47.047070000000005     50.711350000000003     46.694200000000002
C      48.302420000000012     47.742750000000008     48.226499999999994
C      50.449450000000013     48.796650000000007     46.784600000000005
C      46.745270000000005     49.563350000000007     47.574900000000007
C      48.411860000000004     50.574850000000005     46.111600000000003
C      48.023410000000013     48.966050000000003     47.657800000000002
C      49.158470000000008     49.412050000000001     46.772700000000007
C      49.868200000000016     45.717350000000003     49.079699999999995
C      51.010770000000008     44.942050000000002     48.829000000000001
C      51.775810000000021     45.305050000000001     47.615400000000001
C      51.759020000000007     46.609150000000007     46.997700000000002
C      49.207610000000017     45.217750000000002     50.227200000000003
C      49.845800000000011     43.988149999999997     50.660699999999999
C      50.779240000000016     43.626950000000001     49.640400000000007
C      51.560640000000006     49.062950000000008     45.754200000000004
C      48.502830000000017     51.882749999999994     45.307200000000002
C      49.816860000000005     52.277949999999997     44.532299999999999
C      48.121700000000004     45.840650000000004     51.214000000000006
C      45.340120000000013     49.050850000000004     48.013799999999996
H      44.632265000000004     48.608250000000005     45.765000000000008
H      43.400589999999994     48.681649999999998     47.081899999999997
H      44.122764000000004     50.270450000000004     46.459899999999998
H      46.342630000000014     51.497549999999997     46.500800000000005
H      47.495660000000015     47.275150000000004     48.777300000000004
H      52.599410000000006     44.412749999999996     47.414800000000007
H      52.496870000000015     46.799250000000008     46.259099999999997
H      49.402890000000014     43.242049999999999     51.410500000000006
H      51.580030000000008     42.814050000000002     49.649800000000006
H      48.455150000000017     52.564349999999997     46.039400000000008
H      47.576780000000014     52.261350000000000     44.869900000000008
H      50.869610000000009     52.282249999999998     44.929700000000004
H      49.681210000000021     53.185949999999998     43.841100000000004
H      49.614100000000008     51.563150000000000     43.891900000000000
H      48.286530000000013     45.348649999999999     52.158899999999996
H      48.203280000000021     47.060449999999996     51.249800000000000
H      47.189500000000010     45.648950000000006     50.506599999999999
H      45.487380000000016     47.932750000000006     48.134300000000003
H      44.944140000000004     49.630050000000004     48.919500000000006
O      52.185230000000018     48.869850000000007     44.848599999999998
