18

C      47.560479999999998     48.389599999999994     48.228849999999987
C      48.327299999999994     47.266700000000000     47.722049999999996
C      46.159840000000003     48.590000000000003     47.980249999999998
C      47.578879999999998     46.082899999999995     47.167749999999998
C      47.930070000000001     49.739199999999997     48.795450000000002
C      49.799379999999999     47.478400000000008     48.000050000000002
C      45.541880000000006     47.482100000000003     47.316949999999991
C      46.102180000000004     46.126500000000007     47.140749999999997
C      49.330749999999995     49.917299999999997     48.333349999999996
C      50.237880000000004     48.760700000000000     47.906350000000003
H      45.765379999999993     49.450299999999999     47.804649999999995
H      47.971309999999988     45.093299999999999     47.060149999999993
H      47.435590000000005     50.430700000000002     49.230850000000004
H      50.184349999999995     46.363299999999995     48.270449999999997
H      44.600660000000005     47.769599999999997     46.769149999999996
H      45.326859999999996     45.129599999999996     46.777249999999995
H      49.781079999999989     50.906700000000001     48.457849999999993
H      51.399339999999995     48.905299999999997     48.028750000000002
