171

C      48.426749999999998     51.544299999999993     45.539249999999988
C      49.923550000000006     51.187300000000008     45.527149999999992
C      54.976050000000001     58.457099999999997     44.202149999999996
C      48.108050000000006     53.005800000000008     45.714749999999995
C      53.883049999999997     59.152200000000008     44.841249999999995
C      55.243949999999998     57.030400000000000     44.284250000000000
C      51.026949999999999     52.108599999999996     45.150250000000000
C      51.487150000000000     58.729100000000003     45.922449999999991
C      50.359649999999988     57.834500000000006     46.036649999999987
C      54.217249999999993     54.893799999999985     44.886849999999995
C      53.117450000000005     53.992100000000008     45.007549999999995
C      49.217749999999995     55.392700000000005     45.863549999999989
C      52.794249999999991     58.241799999999984     45.557549999999985
C      54.165649999999999     56.284300000000002     44.735849999999999
C      49.183949999999996     53.941500000000005     45.680549999999997
C      50.314049999999995     56.344700000000003     45.769049999999993
C      50.621849999999995     53.591599999999985     45.327949999999994
C      51.775149999999996     54.483099999999993     45.307849999999995
C      52.908449999999988     56.818700000000007     45.397349999999996
C      51.763449999999992     55.903700000000001     45.497949999999996
C      52.454949999999997     51.521299999999997     45.180849999999992
C      53.436050000000009     52.550600000000003     45.047349999999994
C      47.305450000000008     50.692800000000005     45.862949999999998
C      47.806449999999998     49.335500000000010     45.650749999999988
C      49.112049999999996     48.925600000000003     46.103749999999991
C      50.244450000000001     49.755400000000009     45.620249999999999
C      51.418549999999996     48.956800000000001     45.029349999999994
C      52.568849999999998     49.976100000000002     44.743849999999995
C      46.675550000000001     53.572200000000009     46.074349999999995
C      45.508049999999997     52.357100000000003     45.777049999999981
C      46.012649999999994     51.205100000000002     46.452749999999988
C      53.836349999999996     60.571100000000001     44.953649999999996
C      52.460249999999988     61.106600000000000     45.305849999999992
C      51.223250000000007     60.351100000000002     45.997349999999997
C      44.212049999999991     52.606099999999998     46.516449999999992
C      54.883749999999992     61.183400000000006     45.867849999999990
C      45.309750000000008     51.785800000000009     44.374249999999996
C      49.462149999999994     47.471100000000007     46.394549999999995
C      49.192149999999998     41.058800000000005     47.083449999999992
C      48.145250000000004     40.420500000000004     46.308650000000000
C      46.199150000000003     44.691699999999997     46.943749999999994
C      49.267949999999999     42.491500000000002     47.012549999999983
C      47.116849999999999     41.352999999999994     45.761150000000001
C      47.721750000000000     44.664699999999996     47.043449999999986
C      48.026049999999998     43.259199999999993     46.548149999999993
C      46.712150000000008     42.758700000000005     46.112749999999991
C      50.591350000000006     40.322999999999993     46.989949999999993
C      50.317650000000000     38.811899999999994     47.169049999999999
C      49.168049999999994     38.270200000000003     46.602549999999994
C      48.039950000000005     38.925399999999996     45.925049999999992
C      51.524850000000001     40.939099999999996     47.926949999999984
C      51.335650000000001     37.971299999999999     47.987849999999995
C      52.373649999999998     39.985799999999998     48.772049999999986
C      52.404750000000007     38.680000000000007     48.779849999999989
C      51.430449999999993     42.323400000000007     47.898449999999997
C      50.343550000000008     43.206000000000003     47.463249999999981
C      50.229549999999989     44.815799999999996     47.791449999999998
C      48.684049999999999     45.374499999999998     47.923149999999985
C      46.300650000000005     40.834299999999999     44.663149999999995
C      45.751549999999995     39.440799999999996     44.882649999999998
C      46.768349999999998     38.411699999999996     45.341349999999991
C      48.713249999999988     46.906100000000009     47.755549999999999
C      44.789949999999990     39.552099999999996     43.368349999999992
C      43.778949999999995     38.363600000000005     43.043349999999997
C      47.057249999999996     37.769400000000005     44.003049999999995
C      44.894950000000009     34.971999999999994     47.969649999999994
C      43.692549999999997     37.768600000000006     49.314249999999994
C      51.748049999999992     37.030799999999999     52.343849999999989
C      48.858350000000002     39.642399999999995     49.503649999999993
C      45.064149999999998     35.282899999999998     46.449749999999995
C      51.436949999999996     38.356499999999997     51.837350000000001
C      50.073850000000007     39.611000000000004     50.461449999999999
C      50.372149999999991     34.952900000000000     51.831249999999990
C      44.940750000000008     34.706900000000005     49.473149999999983
C      47.956050000000005     38.549499999999995     49.430849999999985
C      48.093649999999997     35.051299999999998     50.665249999999993
C      50.231349999999992     38.304900000000004     51.027349999999991
C      46.086150000000004     35.507499999999993     49.310949999999991
C      49.266050000000007     35.643299999999996     51.216549999999998
C      47.261849999999995     36.031300000000002     49.979649999999992
C      48.066850000000002     37.215500000000006     50.033649999999994
C      49.400549999999996     37.073099999999997     50.719249999999988
C      44.253650000000007     36.061700000000002     47.377949999999998
C      43.481249999999989     37.226399999999998     47.901549999999993
C      42.293949999999995     37.874499999999998     48.366849999999999
C      41.038049999999998     38.154700000000005     48.369450000000001
C      53.018850000000000     36.798299999999998     53.202050000000000
C      54.085549999999998     37.737700000000004     53.281049999999986
C      53.702849999999998     38.989199999999997     52.848849999999999
C      52.367249999999999     39.438900000000004     52.299149999999997
C      51.833649999999992     40.715100000000007     51.788249999999991
C      50.818349999999995     40.809100000000001     50.895149999999994
C      46.254950000000008     34.757800000000003     45.630549999999999
C      47.093249999999998     35.289599999999993     44.178749999999994
C      46.203849999999989     35.241799999999998     43.021749999999997
C      47.748249999999999     34.442899999999995     43.174349999999990
C      51.364550000000008     35.605000000000004     52.517149999999994
C      47.822249999999997     36.423599999999993     44.572149999999993
H      55.701549999999997     59.103000000000009     43.676349999999999
H      56.085849999999994     56.573200000000000     43.859549999999999
H      49.312950000000001     58.098399999999998     46.208349999999996
H      55.218750000000000     54.472899999999996     44.658649999999994
H      48.368949999999998     56.025700000000001     46.130649999999989
H      54.543050000000008     52.453799999999987     45.433549999999997
H      47.066249999999997     48.550800000000010     45.528149999999997
H      51.153250000000000     48.182100000000005     44.177949999999996
H      51.811049999999994     48.016700000000000     45.635849999999984
H      52.687849999999997     49.984800000000007     43.638449999999992
H      53.477750000000000     49.722999999999999     45.256049999999995
H      46.634850000000000     53.896299999999997     47.152849999999994
H      46.265249999999995     54.382000000000005     45.292549999999991
H      45.472250000000003     50.258700000000005     46.635750000000002
H      46.135350000000003     51.475000000000009     47.311250000000001
H      54.152249999999995     61.236400000000003     44.019549999999995
H      52.146749999999997     61.322299999999998     44.330749999999995
H      52.629649999999998     62.284300000000002     45.797550000000001
H      51.025649999999999     60.743400000000008     47.019649999999999
H      50.536649999999995     60.445400000000006     44.950049999999990
H      55.220649999999992     62.257999999999996     45.711949999999995
H      55.416449999999998     60.216300000000004     46.224449999999990
H      54.228049999999996     61.435799999999986     46.827749999999988
H      46.225749999999991     52.181499999999986     43.562249999999992
H      45.401349999999994     50.599500000000006     44.348949999999988
H      44.323149999999998     51.814099999999982     44.233349999999987
H      50.101849999999999     47.149000000000001     45.513049999999993
H      48.746949999999998     46.801299999999998     45.942749999999982
H      45.601250000000007     45.675399999999996     47.141449999999992
H      49.128949999999989     37.253799999999998     46.557350000000000
H      52.790449999999993     40.564200000000000     49.713649999999994
H      52.894549999999995     38.057599999999994     49.488749999999989
H      52.107450000000000     43.023799999999994     48.588849999999994
H      50.681649999999991     45.216499999999996     48.799549999999996
H      50.880549999999999     44.954899999999995     46.887149999999991
H      48.417349999999999     45.678399999999996     48.982749999999989
H      45.562349999999995     41.628200000000007     44.039149999999992
H      46.934950000000001     40.949100000000001     43.739549999999994
H      45.119050000000001     39.506299999999996     45.661449999999988
H      46.591250000000002     37.590400000000002     46.202649999999991
H      47.710349999999991     47.555300000000003     47.826849999999986
H      49.596249999999998     47.136099999999999     48.628749999999997
H      45.393649999999994     39.560599999999994     42.439149999999998
H      44.073650000000001     40.667199999999994     43.516749999999988
H      44.174549999999996     37.332400000000007     43.051949999999991
H      43.085749999999990     38.643199999999993     42.327449999999999
H      43.308650000000000     38.625000000000000     44.141349999999996
H      46.205849999999998     37.716800000000006     43.385849999999991
H      48.107149999999990     38.209699999999998     43.555949999999996
H      47.027950000000004     38.882900000000006     49.125149999999984
H      50.271149999999992     33.715699999999998     51.658049999999989
H      44.569550000000007     34.420500000000004     50.471049999999984
H      50.802949999999996     40.510099999999994     45.984749999999991
H      48.920149999999992     40.659899999999993     49.027949999999990
H      48.064849999999993     33.874700000000004     50.626749999999994
H      53.543650000000000     35.900199999999998     53.652449999999995
H      55.070049999999995     37.480199999999996     54.000050000000002
H      54.684749999999994     39.696500000000000     53.111149999999995
H      52.395049999999998     41.490899999999996     52.152850000000001
H      50.540250000000000     41.726200000000006     50.453749999999999
H      45.872150000000005     34.070499999999996     44.941249999999997
H      47.058450000000008     34.671599999999998     46.383749999999992
H      45.323949999999996     34.697599999999994     43.213449999999995
H      46.193349999999995     35.877499999999998     41.999949999999998
H      52.108249999999998     35.031999999999996     53.261949999999992
H      48.905349999999999     36.483699999999999     44.250449999999994
H      48.077250000000006     36.294300000000007     45.609849999999994
N      45.607550000000003     43.748900000000006     46.425449999999998
O      43.228349999999992     52.881100000000004     47.021450000000002
O      51.128250000000008     36.828299999999999     48.034250000000000
O      48.892649999999989     34.455699999999993     42.843049999999991
O      44.707650000000001     38.202900000000000     49.583349999999996
O      39.914150000000006     38.311800000000005     48.418149999999997
