18

C      48.346999999999994     48.360849999999999     47.836749999999995
C      47.429699999999997     47.565550000000002     48.698949999999996
C      48.005399999999995     49.466150000000006     47.117950000000008
C      45.983499999999992     47.965650000000004     48.803250000000006
C      49.797399999999996     48.042750000000005     47.861550000000008
C      47.867400000000004     46.374350000000007     49.375450000000001
C      46.670999999999992     50.030050000000010     47.305149999999998
C      45.755200000000002     49.292850000000008     48.259349999999998
C      50.122399999999999     46.771450000000002     48.487949999999998
C      49.235199999999992     46.067750000000004     49.345950000000002
H      48.662300000000002     49.799150000000004     46.335549999999998
H      45.509199999999993     47.561650000000000     49.626050000000006
H      50.786500000000004     48.345550000000003     47.785849999999996
H      47.229100000000003     45.665850000000006     49.527650000000008
H      46.618499999999997     50.951249999999995     46.885149999999996
H      44.817300000000003     49.803650000000005     48.695949999999996
H      51.182699999999997     46.680150000000005     48.277450000000002
H      49.650799999999990     45.048750000000005     49.664450000000002
