14

C      46.984949999999984     48.477229999999999     48.317549999999997
C      46.123649999999998     49.315640000000002     49.159950000000016
C      49.518650000000008     47.802470000000000     48.174450000000007
C      49.207850000000008     46.676890000000000     48.916750000000008
C      48.466549999999998     48.754239999999996     48.449850000000005
C      46.233549999999994     47.905590000000004     49.481650000000009
C      46.521749999999997     47.934980000000003     47.264950000000006
H      45.844149999999999     50.305539999999993     48.910850000000003
H      50.488550000000004     47.988160000000001     47.720250000000007
H      48.784649999999999     49.748339999999999     47.886350000000007
H      45.625649999999993     47.100190000000005     49.672649999999997
H      46.856749999999991     47.368040000000001     46.327350000000003
H      45.511449999999996     47.566980000000001     47.083050000000007
O      48.922150000000002     45.694460000000007     49.637450000000008
