5

C      47.964499999999994     48.166899999999991     48.053099999999986
H      48.076599999999999     47.011099999999999     48.767200000000003
H      47.019100000000002     47.985299999999995     47.232799999999997
H      47.944099999999999     48.988900000000001     48.622500000000002
H      48.980899999999998     48.339500000000001     47.387799999999999
