18

C      47.945749999999990     48.693649999999991     47.922352999999994
C      47.817250000000008     47.262050000000002     48.333825000000004
C      46.722550000000005     49.465350000000008     47.770652999999996
C      46.599950000000000     46.405149999999999     48.317111000000011
C      49.225749999999998     49.161850000000001     47.689252999999994
C      49.110750000000003     46.699649999999998     48.505516999999998
C      45.556649999999998     48.650849999999998     47.900953000000001
C      45.521149999999999     47.168849999999999     48.211173000000002
C      50.535550000000008     48.648350000000001     48.102452999999997
C      50.472150000000006     47.268050000000002     48.596430999999995
H      46.810949999999998     50.649250000000002     47.316552999999999
H      46.494650000000000     45.350749999999998     48.644231000000005
H      49.278849999999998     50.156250000000007     47.351652999999999
H      49.195950000000003     45.613650000000000     48.683447000000001
H      44.736049999999999     49.424749999999996     47.760352999999995
H      44.518650000000001     46.710750000000004     48.304158000000001
H      51.481349999999999     49.104649999999999     47.831553000000000
H      51.406250000000007     46.568649999999998     48.627878000000010
