18

C      47.467559999999992     48.164699999999996     48.346000000000004
C      48.648040000000002     47.844600000000007     47.401400000000010
C      47.301400000000001     49.482400000000005     48.957300000000004
C      49.157920000000004     49.075800000000001     46.737099999999998
C      46.815440000000002     47.037200000000006     48.991000000000000
C      49.086620000000003     46.547800000000002     47.037599999999998
C      47.833260000000003     50.638100000000001     48.134600000000006
C      48.677700000000009     50.374900000000004     47.028900000000007
C      47.300180000000005     45.785800000000002     48.440800000000010
C      48.401740000000004     45.398000000000003     47.540900000000008
H      46.861730000000001     49.507500000000007     49.939899999999994
H      49.917819999999999     48.880000000000003     46.060100000000006
H      46.082180000000001     47.083500000000001     49.681100000000001
H      49.822120000000005     46.398800000000001     46.285499999999999
H      47.357440000000004     51.700099999999999     47.857100000000003
H      49.031430000000000     51.209200000000003     46.629800000000003
H      47.411660000000005     44.883500000000005     49.116599999999991
H      48.494420000000012     44.299900000000001     47.459100000000007
