18

C      47.875499999999988     48.920799999999986     48.007549999999995
C      47.391000000000005     47.574699999999993     48.018650000000001
C      48.228400000000008     49.433400000000006     46.649650000000001
C      47.259000000000000     46.736800000000002     46.832949999999997
C      48.203000000000003     49.435299999999998     49.388849999999998
C      47.279600000000002     46.633799999999994     49.179450000000003
C      48.027799999999999     48.846099999999993     45.368250000000003
C      47.624499999999998     47.481700000000004     45.686050000000002
C      48.384900000000002     48.572999999999993     50.563049999999997
C      48.075800000000001     47.196500000000000     50.189250000000008
H      48.310600000000008     50.478099999999998     46.597850000000001
H      47.124600000000001     45.646900000000002     47.168650000000000
H      48.446700000000007     50.462599999999995     49.529249999999998
H      47.294899999999998     45.521900000000002     49.304749999999991
H      47.802800000000005     49.333600000000004     44.458849999999998
H      47.369299999999996     46.715999999999994     44.923949999999998
H      48.875399999999999     49.013700000000000     51.541150000000002
H      48.405000000000001     46.511899999999997     50.972149999999999
