18

C      48.524799999999992     48.219694999999987     48.279649999999990
C      47.271899999999995     47.575035000000000     47.631149999999998
C      49.486999999999995     49.080624999999998     47.553249999999998
C      46.777599999999993     48.012205000000009     46.259549999999997
C      48.851399999999998     47.997205000000008     49.655949999999997
C      46.526999999999994     46.413015000000001     48.222749999999998
C      49.016899999999993     49.246775000000014     46.192249999999994
C      47.850999999999999     48.671565000000001     45.504449999999999
C      47.733300000000000     47.463454999999996     50.366450000000007
C      46.651699999999998     46.815145000000001     49.578449999999997
H      50.260300000000001     49.769464999999997     48.045849999999994
H      45.753299999999996     47.931094999999999     45.770649999999996
H      49.884299999999996     48.187025000000006     50.184449999999991
H      45.739699999999999     46.089354999999998     47.589349999999996
H      49.759399999999999     49.910645000000002     45.775349999999996
H      47.438099999999999     49.251464999999996     44.633350000000000
H      47.599199999999996     47.807195000000007     51.366650000000000
H      45.948699999999995     46.830415000000002     50.395550000000000
