18

C      47.888649999999998     48.309449999999991     47.733099999999993
C      48.455450000000006     47.386450000000011     48.792000000000002
C      46.767850000000003     49.294550000000001     47.996899999999997
C      47.843650000000004     47.299450000000007     50.144599999999997
C      48.526050000000005     48.438650000000010     46.450000000000003
C      49.689050000000002     46.874250000000004     48.305399999999992
C      46.187750000000001     49.059750000000008     49.260799999999989
C      46.472850000000001     47.986450000000005     50.253799999999998
C      49.551750000000006     47.561850000000007     45.897199999999998
C      49.940150000000003     46.621250000000003     46.886299999999991
H      46.200150000000001     50.058750000000003     47.332899999999995
H      48.169150000000009     46.338250000000002     50.540599999999998
H      48.081449999999997     49.243949999999998     45.942399999999992
H      50.495950000000001     46.562950000000001     49.173199999999994
H      45.170250000000003     49.663449999999997     49.365399999999994
H      45.886650000000003     48.355050000000006     51.082999999999998
H      50.034450000000014     47.740450000000010     44.917000000000002
H      50.829749999999997     45.941249999999997     46.558399999999992
