18

C      47.300349999999995     47.716999999999992     47.698949999999982
C      48.493849999999995     48.550699999999992     47.920450000000002
C      46.092349999999996     47.834499999999998     48.556750000000008
C      48.350549999999998     49.666799999999995     48.978549999999998
C      47.285849999999996     46.790199999999999     46.581649999999996
C      49.579949999999997     47.964600000000004     47.024950000000004
C      46.105850000000004     48.641700000000000     49.811149999999998
C      47.313850000000002     49.500600000000006     49.908550000000005
C      48.469650000000001     46.185499999999998     45.949150000000003
C      49.746349999999993     46.709999999999994     46.228450000000009
H      45.232450000000000     47.226799999999997     48.383449999999996
H      49.141049999999993     50.501300000000001     49.136750000000006
H      46.461150000000004     46.198399999999992     46.276949999999999
H      50.648749999999993     48.237200000000001     46.837050000000005
H      45.208550000000002     48.610999999999990     50.385249999999999
H      47.163150000000002     50.223900000000000     50.755650000000003
H      48.141350000000003     45.498699999999999     45.244349999999997
H      50.791449999999998     46.379899999999992     46.103650000000002
