18

C      48.670799999999986     48.296029999999995     48.251799999999989
C      47.350399999999993     48.111699999999999     47.493000000000002
C      48.621499999999997     48.775149999999996     49.637999999999998
C      46.088800000000006     48.235839999999996     48.253599999999999
C      49.896100000000004     47.525089999999999     47.742600000000003
C      46.872799999999998     47.299959999999999     46.316200000000002
C      47.447500000000005     49.514759999999995     50.004100000000001
C      46.161900000000003     49.076129999999999     49.418799999999997
C      49.406500000000008     46.646360000000001     46.714999999999996
C      48.055499999999995     46.561949999999996     46.091000000000001
H      49.639300000000006     49.105390000000000     50.225900000000003
H      45.136799999999994     48.173829999999995     47.697200000000002
H      50.863200000000006     47.522129999999997     48.238499999999995
H      45.957099999999997     47.159530000000004     45.839300000000001
H      47.445499999999996     50.152259999999998     50.845700000000001
H      45.289400000000001     49.626860000000001     49.458099999999995
H      50.058099999999996     46.056699999999999     45.999400000000001
H      48.184899999999999     45.847740000000002     45.154299999999999
