18

C      47.657199999999989     48.016849999999991     47.326299999999989
C      47.840099999999993     48.148650000000004     48.827400000000004
C      47.502600000000001     46.579149999999998     46.883299999999998
C      47.537800000000004     46.955250000000007     49.589000000000006
C      47.864699999999999     49.093649999999997     46.339400000000005
C      48.599099999999993     49.338650000000001     49.166900000000005
C      46.974599999999995     45.550049999999999     47.782299999999999
C      47.191699999999997     45.681849999999997     49.262999999999998
C      48.248199999999997     50.320450000000008     46.845099999999995
C      48.686499999999995     50.400649999999999     48.189900000000002
H      47.210599999999999     46.376050000000006     45.727300000000007
H      47.791600000000003     47.282550000000001     50.710699999999996
H      47.511899999999997     48.918850000000006     45.289300000000004
H      48.864400000000003     49.823149999999998     50.374800000000000
H      46.859099999999998     44.623649999999998     47.185400000000008
H      46.949900000000000     44.914550000000006     50.008199999999995
H      48.570899999999995     51.342650000000006     46.368199999999995
H      49.140900000000002     51.376350000000002     48.601400000000005
