30

C      50.470700000000001     50.576799999999992     50.278249999999993
C      46.562300000000008     47.053599999999996     47.122950000000003
C      47.476399999999998     46.766399999999997     48.115250000000003
C      50.435000000000002     51.393099999999997     47.420549999999999
C      46.488799999999998     48.229199999999999     46.017850000000003
C      48.713200000000001     47.435099999999998     48.057949999999998
C      48.255099999999999     50.449199999999998     45.930250000000001
C      49.909599999999998     49.934699999999999     47.614249999999998
C      47.760000000000005     49.198599999999999     46.480350000000001
C      48.864900000000006     48.779499999999999     47.411349999999999
C      45.448000000000008     46.061799999999998     47.330649999999999
C      45.199700000000007     44.994999999999997     48.289349999999999
C      46.342799999999997     44.872399999999999     49.166449999999998
C      47.563299999999998     45.489699999999999     48.835850000000001
C      49.435800000000000     51.001399999999997     46.616550000000004
C      50.741100000000003     49.821799999999996     48.813850000000002
H      46.638900000000007     47.467999999999996     45.002850000000002
H      51.403000000000006     51.114300000000000     50.500550000000004
H      49.866900000000001     51.628099999999996     50.127749999999999
H      51.518299999999996     51.803000000000004     47.526850000000003
H      45.697800000000001     48.824099999999994     45.776150000000001
H      49.253000000000000     47.073099999999997     48.840450000000004
H      47.791100000000000     50.829299999999996     44.838749999999997
H      45.012799999999999     46.087299999999999     46.293450000000000
H      44.225200000000001     44.502600000000001     48.028250000000000
H      46.368400000000008     44.196999999999996     50.019050000000000
H      48.298000000000002     45.465199999999996     49.743250000000003
H      49.755400000000009     50.352300000000000     51.161250000000003
H      51.774799999999999     49.488900000000001     48.550649999999997
H      50.454900000000009     48.511499999999998     49.152650000000001
