18

C      47.409250000000000     47.263394999999996     47.975849999999994
C      48.350450000000009     48.360195000000004     47.787350000000004
C      47.848150000000004     46.072194999999994     48.639250000000004
C      49.716450000000009     48.271794999999997     48.097450000000009
C      46.052049999999994     47.422794999999994     47.484949999999998
C      47.907950000000000     49.531994999999995     47.175650000000005
C      49.260350000000003     46.183395000000004     49.117450000000005
C      50.188549999999992     47.189795000000004     48.778350000000003
C      45.733149999999995     48.554495000000003     46.683850000000007
C      46.469250000000002     49.763701000000005     46.856150000000000
H      47.168650000000000     45.248795000000001     48.848750000000010
H      49.943849999999998     49.225295000000003     47.606549999999999
H      45.464250000000007     46.468095000000005     47.557450000000003
H      48.613849999999999     50.324928000000014     47.163350000000008
H      49.747150000000005     45.432995000000005     49.830849999999998
H      51.303349999999995     47.206395000000001     49.055250000000001
H      44.696650000000005     48.580794999999995     46.169150000000002
H      46.093149999999994     50.751204999999999     46.460650000000001
