22

C      45.696449999999999     48.400499999999987     50.243813499999995
C      47.930449999999993     47.762500000000003     46.638583500000003
C      48.324249999999992     48.671799999999990     47.557843499999997
C      46.510749999999987     47.410899999999998     46.844413500000002
C      47.530549999999991     49.176499999999990     48.623063500000001
C      48.760149999999996     46.976199999999992     45.670153499999998
C      49.733350000000002     48.987299999999991     47.630273500000001
C      45.583349999999996     47.817799999999991     47.847343500000001
C      46.031549999999996     48.827500000000001     48.690023500000002
C      50.167149999999992     47.138399999999990     45.924713500000003
C      50.620750000000001     48.209999999999994     46.718823499999999
H      44.757249999999999     48.939499999999995     50.440073499999997
H      45.362250000000003     47.217100000000002     50.585113500000006
H      46.628450000000001     48.439700000000002     51.012923499999999
H      46.231250000000003     46.706400000000002     46.142823499999999
H      47.945449999999994     49.507399999999990     49.604903499999999
H      48.170049999999989     46.157200000000003     44.987076500000001
H      50.025849999999991     49.842799999999997     48.281743499999997
H      44.437250000000006     47.839100000000002     48.017703499999996
H      45.665850000000006     49.840099999999993     48.481943500000000
H      50.999149999999986     47.037199999999999     45.256342500000002
H      51.562749999999994     48.680700000000002     46.450383500000001
