16

C      47.344599999999993     47.850199999999987     47.550749999999987
C      48.286099999999990     48.553399999999989     48.625049999999995
C      47.702199999999998     46.613899999999994     46.777749999999997
C      49.698999999999998     48.207000000000001     48.375949999999996
C      46.146900000000002     48.546100000000003     47.554349999999999
C      47.462000000000003     49.606099999999991     49.149049999999995
C      49.030999999999992     46.118799999999993     46.854849999999999
C      49.942899999999995     47.007299999999994     47.670150000000007
C      46.257700000000000     49.711499999999994     48.455649999999999
H      47.031800000000004     46.114499999999992     46.020049999999998
H      50.492800000000003     48.688600000000001     48.843649999999997
H      45.183500000000002     48.189000000000000     46.987849999999995
H      47.582300000000004     50.328899999999997     49.979950000000002
H      49.379199999999997     45.451799999999999     46.169749999999993
H      50.816499999999998     46.552799999999998     48.012850000000000
H      45.627099999999999     50.548200000000001     48.546049999999994
