18

C      48.780139999999982     47.828549999999993     47.922849999999990
C      47.475395999999989     48.181149999999995     47.642019999999995
C      49.552739999999986     48.867250000000006     48.740229999999997
C      46.938239999999986     49.423350000000006     48.045850000000002
C      49.554489999999987     46.582949999999997     47.523609999999998
C      46.571819999999981     46.999649999999995     47.396349999999998
C      49.010269999999984     49.973750000000003     49.338440000000006
C      47.499258999999988     50.069150000000000     49.151570000000000
C      48.808969999999988     45.919149999999995     46.475229999999996
C      47.415339999999986     46.006749999999997     46.715049999999998
H      50.561779999999985     48.581349999999993     48.811449999999994
H      45.981820000000006     49.704949999999990     47.876210000000000
H      50.491889999999984     46.400849999999998     47.793140000000001
H      45.438220000000015     46.912849999999999     47.365310000000001
H      49.383109999999988     50.650349999999996     50.154700000000005
H      47.176537999999987     51.022150000000003     49.681439999999995
H      49.308659999999989     44.977849999999997     45.845299999999995
H      46.941779999999987     45.456849999999996     45.908609999999996
