18

C      47.578699999999998     48.377649999999988     47.447654999999997
C      48.401999999999987     48.034050000000008     48.720655000000001
C      46.702699999999993     49.421250000000001     47.356455000000004
C      47.923199999999994     48.612750000000005     49.872758999999995
C      47.825699999999998     47.472250000000003     46.276054999999992
C      49.349199999999996     47.008550000000000     48.552455000000002
C      46.381199999999993     50.236850000000004     48.556554999999996
C      46.772800000000004     49.619350000000011     49.802519000000011
C      48.902899999999988     46.457350000000005     46.295655000000004
C      49.727800000000002     46.043350000000004     47.506454999999995
H      46.269000000000005     49.776050000000012     46.375454999999995
H      48.432599999999994     48.226550000000003     50.777845000000006
H      47.573400000000007     47.663449999999997     45.222154999999994
H      49.345999999999989     46.804749999999999     49.621006999999999
H      45.626900000000006     50.914450000000002     48.523954999999994
H      46.137699999999995     49.584350000000001     50.614995000000015
H      48.938500000000005     45.617350000000002     45.660554999999995
H      50.373099999999994     45.085549999999998     47.565355000000004
