18

C      48.732449999999993     48.598499999999994     47.388149999999996
C      47.218550000000008     48.859399999999994     47.889949999999999
C      49.030349999999999     47.499499999999998     46.521949999999990
C      46.292850000000001     48.137999999999998     47.290049999999994
C      49.676150000000007     49.106200000000001     48.396949999999990
C      46.626249999999999     49.596199999999996     49.063249999999996
C      47.826450000000008     46.725800000000000     46.018749999999997
C      46.455250000000007     47.137699999999995     46.224049999999991
C      49.246449999999996     49.244299999999996     49.643850000000000
C      47.751950000000008     49.380499999999998     49.918249999999986
H      49.812550000000002     47.224899999999998     45.882049999999992
H      45.209350000000001     48.227599999999995     47.731549999999999
H      50.790649999999999     49.280599999999993     48.180449999999993
H      45.494550000000004     49.664200000000008     49.365949999999998
H      48.363950000000003     46.333500000000001     45.019350000000003
H      45.620550000000009     46.733899999999998     45.732149999999990
H      50.022850000000005     49.666499999999999     50.340049999999991
H      47.683750000000003     49.449700000000007     50.980649999999997
