18

C      48.420389999999998     47.438199999999995     47.824700000000000
C      47.457120000000003     48.668200000000006     48.049100000000010
C      47.590150000000001     46.215400000000002     47.785100000000000
C      46.057050000000004     48.534999999999989     47.892800000000008
C      49.787240000000004     47.818700000000000     47.539900000000003
C      48.184580000000004     49.853099999999998     47.894100000000009
C      46.242820000000002     45.888799999999996     47.950400000000002
C      45.557710000000000     47.208500000000001     47.745500000000007
C      50.609740000000009     49.053500000000007     47.635500000000008
C      49.708639999999995     50.117899999999999     47.843100000000007
H      48.259909999999998     45.415500000000002     47.698099999999997
H      45.272110000000005     49.408399999999993     47.703900000000004
H      50.322539999999996     46.756499999999996     47.486199999999997
H      47.440940000000005     50.621400000000001     48.108400000000003
H      45.674979999999998     44.881900000000002     47.616000000000000
H      44.378059999999998     47.401600000000002     47.608199999999997
H      51.621940000000002     49.000500000000002     47.736800000000002
H      49.810440000000000     51.118099999999998     48.513800000000003
