19

C      47.975659999999991     47.560749999999999     48.339949999999995
C      48.894119999999994     48.014950000000006     47.211750000000002
C      48.140689999999999     46.096849999999996     48.171650000000000
C      45.994920000000000     49.618350000000000     47.460350000000005
C      47.395329999999994     48.543249999999993     49.259450000000001
C      48.546640000000004     49.138849999999998     46.497650000000000
C      49.093139999999998     45.836149999999996     47.210650000000001
C      49.800329999999995     47.079450000000001     46.789650000000002
C      47.131200000000000     49.912849999999999     48.505250000000004
C      47.445799999999998     50.010749999999994     46.981850000000001
H      45.803660000000001     48.392850000000003     47.450050000000005
H      47.932549999999999     45.301549999999999     48.743449999999996
H      45.373669999999997     50.406749999999995     46.967849999999999
H      47.239469999999997     48.274849999999994     50.280349999999999
H      49.047120000000000     49.572349999999993     45.719650000000001
H      49.253329999999998     44.919050000000006     46.797350000000002
H      50.626330000000003     47.213450000000002     46.119450000000001
H      46.948969999999996     50.797249999999998     48.983850000000004
H      47.476039999999998     51.080949999999994     46.442949999999996
