18

C      48.305049999999994     47.702899999999985     48.793650000000000
C      48.321649999999998     47.735399999999991     47.425249999999998
C      49.290950000000002     48.535199999999996     49.421950000000002
C      49.234050000000003     48.494999999999997     46.589149999999997
C      47.306249999999999     47.186100000000003     49.634650000000001
C      47.191250000000004     46.971699999999991     46.836850000000005
C      50.271949999999997     49.328600000000002     48.721250000000005
C      50.314950000000003     49.076799999999999     47.261450000000004
C      46.128250000000001     46.657499999999992     48.987550000000006
C      45.922750000000001     46.720899999999993     47.632250000000006
H      49.233550000000001     48.378700000000002     50.435049999999997
H      49.292350000000006     48.700699999999991     45.349950000000000
H      47.569949999999999     47.418100000000003     50.650050000000000
H      47.147750000000009     46.670099999999998     45.794149999999995
H      50.971150000000002     49.903500000000001     49.363549999999996
H      50.754849999999998     49.768200000000000     46.536049999999996
H      45.321249999999999     46.096499999999999     49.581250000000004
H      45.028849999999998     46.296999999999990     47.163450000000005
