18

C      48.446954999999996     48.342899999999993     48.637174499999979
C      47.644095000000000     47.734399999999994     47.471374499999996
C      49.117654999999999     47.072100000000006     49.403074499999988
C      47.237365000000004     46.299099999999996     47.425574499999996
C      48.860865000000004     49.646200000000007     48.636974499999994
C      47.044715000000004     48.852400000000003     46.784974499999990
C      49.001605000000012     45.684600000000003     49.302274499999996
C      47.882245000000005     45.365899999999996     48.408074499999998
C      48.301495000000003     50.713700000000003     47.711174499999998
C      47.282905000000000     50.176900000000003     46.827774499999990
H      49.715954999999994     47.729500000000002     49.983625500000002
H      46.497195000000005     45.937799999999996     46.609474499999990
H      49.669754999999995     49.733199999999997     49.311074499999989
H      46.284045000000006     48.748099999999994     46.016374499999998
H      49.664554999999993     44.910899999999998     49.799359500000001
H      47.563955000000000     44.344700000000003     48.371174499999995
H      48.756915000000006     51.655299999999997     47.591074499999991
H      46.627385000000004     50.867400000000004     46.323674499999996
