18

C      47.347499999999997     47.575319999999991     48.179099999999991
C      48.617000000000004     48.398550000000000     47.945499999999996
C      47.586100000000002     46.385500000000008     49.014999999999993
C      49.739199999999997     48.360540000000000     48.820799999999998
C      46.075800000000001     47.715070000000011     47.589799999999997
C      48.639899999999997     49.508480000000006     46.970999999999997
C      48.889600000000002     46.261910000000000     49.635399999999997
C      49.910899999999998     47.235820000000004     49.707799999999999
C      46.190699999999993     48.921780000000012     46.801299999999998
C      47.361699999999999     49.746280000000013     46.448599999999999
H      46.835399999999993     45.704729999999998     49.408399999999993
H      50.704599999999999     48.880080000000007     48.521999999999998
H      45.161299999999997     47.323360000000008     47.816699999999997
H      49.538399999999996     50.163179999999997     46.674599999999998
H      49.029700000000005     45.423119999999997     50.282100000000000
H      50.838700000000003     46.942800000000005     50.341500000000003
H      45.428100000000001     49.427580000000006     46.001199999999997
H      47.073399999999992     50.576880000000003     45.658499999999997
