18

C      47.545449999999995     48.691899999999990     47.317849999999993
C      47.288250000000005     48.430600000000005     48.807549999999992
C      48.485450000000000     49.708800000000004     46.745850000000004
C      48.206850000000003     49.120100000000001     49.691749999999999
C      46.917850000000001     47.739899999999999     46.493449999999996
C      46.773550000000000     47.118000000000002     49.101550000000003
C      49.312350000000009     50.322600000000001     47.737849999999995
C      49.184950000000001     49.988300000000002     49.142849999999996
C      46.174550000000004     46.635200000000005     46.993349999999992
C      46.122150000000005     46.020800000000001     48.377649999999988
H      48.574950000000001     49.919599999999996     45.621049999999997
H      48.249250000000004     48.884499999999996     50.695250000000001
H      47.150050000000000     47.773900000000005     45.304749999999999
H      46.699150000000003     46.637300000000003     50.087450000000004
H      50.254149999999996     50.979700000000001     47.540949999999995
H      49.758850000000002     50.473599999999998     49.914649999999995
H      45.745850000000004     45.931900000000006     46.439949999999996
H      45.752049999999997     45.020299999999999     48.624449999999996
