21

C      48.898169999999979     45.750949999999989     47.071049999999985
C      46.845169999999996     46.939150000000005     48.540449999999993
C      47.857370000000003     46.535549999999994     47.703950000000006
C      50.090880000000013     46.456849999999996     46.791749999999993
C      47.571870000000004     48.016250000000007     47.960850000000008
C      48.466970000000003     49.174550000000004     47.434550000000002
C      50.538590000000013     47.731749999999998     46.409349999999989
C      50.266930000000016     45.021250000000002     46.847149999999999
C      47.728269999999995     50.379349999999995     47.831249999999997
C      49.639763000000002     48.779149999999994     46.786749999999998
C      45.546669999999992     46.505249999999997     49.415349999999989
H      51.295130000000000     47.954249999999995     45.710849999999994
H      51.161120000000011     44.818750000000001     46.057249999999996
H      50.791810000000012     44.688949999999998     47.659750000000003
H      48.260270000000006     51.311050000000002     47.011949999999999
H      48.019670000000005     50.671050000000001     48.971750000000000
H      46.516869999999997     50.431249999999999     47.871849999999995
H      50.139970000000005     50.034849999999999     46.734650000000002
H      44.704870000000000     46.327850000000005     48.660150000000002
H      44.764769999999999     46.608349999999994     50.289150000000006
H      45.949169999999995     45.479750000000003     49.772250000000000
