18

C      48.582299999999982     47.915099999999988     48.931999999999995
C      47.770799999999994     47.969400000000007     47.622299999999996
C      48.598799999999997     49.430000000000007     49.311499999999995
C      47.503500000000003     48.888900000000007     46.534899999999993
C      49.090199999999996     46.541399999999996     49.523300000000006
C      47.152400000000000     46.609899999999996     47.161900000000003
C      48.571399999999997     50.459800000000001     48.279799999999994
C      48.131000000000000     50.082499999999996     47.004999999999995
C      48.521500000000003     45.505200000000002     48.778999999999996
C      47.414699999999996     45.598500000000001     47.880899999999997
H      49.143199999999993     49.649100000000004     50.484399999999994
H      47.081400000000002     48.836900000000000     45.515600000000006
H      49.677700000000002     46.070200000000000     50.274500000000003
H      46.322299999999998     46.889899999999997     46.498900000000006
H      49.117999999999995     51.528700000000001     48.428799999999995
H      48.288399999999996     50.630899999999997     46.225300000000004
H      48.793799999999990     44.471299999999999     49.063100000000006
H      47.154799999999994     44.531199999999998     47.615600000000001
