6

C      47.654749999999993     47.715500000000006     48.455549999999988
C      48.336649999999999     48.375800000000005     47.519149999999996
H      47.850049999999989     47.804300000000005     49.558850000000000
H      46.822449999999996     46.983100000000000     48.101149999999997
H      48.150749999999995     48.107100000000010     46.441150000000000
H      49.177550000000004     49.016900000000000     47.556049999999992
