18

C      47.717599999999990     47.483849999999990     47.949434999999994
C      48.739500000000000     48.464750000000009     47.538685000000001
C      46.398899999999990     47.240449999999996     47.280805000000001
C      48.537500000000001     49.076549999999997     46.218865000000008
C      47.765599999999999     46.773349999999994     49.253574999999998
C      49.834099999999999     48.962249999999997     48.464195000000004
C      46.151099999999992     47.991450000000000     46.039505000000005
C      47.155999999999999     48.878350000000012     45.603425000000001
C      48.780399999999993     47.111350000000002     50.150875000000013
C      49.724399999999996     48.263850000000005     49.747775000000004
H      45.520999999999994     46.577550000000002     47.634795000000011
H      49.497199999999999     49.725449999999995     46.106915000000001
H      46.966400000000000     46.274550000000005     49.461575000000011
H      50.896300000000004     49.303450000000012     48.101545000000016
H      45.103699999999996     47.799750000000003     45.405205000000009
H      46.817999999999991     49.683650000000014     44.876525000000001
H      48.761800000000001     46.917950000000005     51.123474999999999
H      50.355100000000000     48.627250000000004     50.585774999999998
