18

C      48.252485499999999     48.756549999999990     47.803549999999994
C      47.689085500000004     47.393250000000002     48.046250000000001
C      47.853185499999995     49.994549999999997     48.383750000000006
C      46.314185500000008     47.534950000000002     48.627549999999999
C      49.533685500000004     48.753650000000000     47.312950000000001
C      48.450385499999996     46.300149999999995     47.392050000000012
C      46.533385500000009     49.868450000000003     49.009750000000011
C      45.755385500000003     48.640849999999993     49.158450000000002
C      50.349485500000000     47.582050000000002     47.184250000000006
C      50.008685499999999     46.212750000000000     47.219050000000010
H      48.478485500000005     50.638849999999998     47.787050000000008
H      45.775885500000001     46.440449999999998     48.649050000000003
H      50.072085500000000     49.595049999999993     47.387750000000011
H      48.009185500000001     45.354949999999995     46.744650000000007
H      46.075885499999998     50.709949999999999     49.364450000000005
H      44.684685500000001     48.480749999999993     49.380150000000000
H      51.315314499999999     47.824649999999998     46.806550000000001
H      50.434685500000001     45.290050000000001     46.619850000000000
