18

C      48.023499999999984     48.545349999999992     48.663749999999993
C      47.648399999999995     47.344949999999997     47.757749999999994
C      49.465000000000003     48.884749999999997     48.472850000000001
C      48.528400000000005     46.815849999999998     46.618350000000000
C      47.088399999999993     49.224550000000008     49.576550000000005
C      46.410399999999996     46.802149999999997     48.065549999999995
C      50.390200000000007     48.174949999999995     47.600850000000001
C      49.879400000000004     47.104550000000003     46.679549999999999
C      45.771400000000000     48.818449999999999     49.724849999999996
C      45.649699999999996     47.550849999999997     49.042049999999996
H      49.825299999999999     49.692850000000000     49.324350000000003
H      48.038299999999992     46.082850000000001     45.802849999999999
H      47.361699999999999     50.218450000000004     50.197150000000001
H      46.094999999999999     45.781549999999996     47.658049999999996
H      51.460700000000003     48.583550000000002     47.603649999999995
H      50.580500000000001     46.515650000000001     46.137149999999998
H      44.856499999999997     49.297249999999998     50.196549999999995
H      44.539299999999997     47.141149999999996     49.256750000000004
