18

C      48.351199999999992     48.085100000000004     48.578850000000003
C      47.485199999999992     48.195500000000010     47.299250000000008
C      47.694000000000003     47.764700000000005     49.751750000000008
C      46.117699999999999     47.648800000000008     47.330450000000006
C      49.778499999999994     48.480800000000002     48.673949999999998
C      48.308399999999992     48.682700000000011     46.134949999999996
C      46.318399999999997     47.409500000000008     49.627350000000000
C      45.352099999999993     47.488600000000005     48.520249999999997
C      50.402699999999996     48.753700000000009     47.473350000000003
C      49.822599999999994     48.865800000000007     46.061150000000005
H      48.272099999999995     47.614800000000002     50.816049999999997
H      45.378100000000003     47.607100000000003     46.513550000000002
H      50.353999999999999     48.346100000000007     49.694250000000004
H      48.009299999999996     48.978200000000001     45.183950000000003
H      45.857699999999994     46.936199999999999     50.556550000000009
H      44.291899999999998     47.220000000000013     48.478749999999998
H      51.708100000000002     49.034300000000002     47.091850000000001
H      50.653300000000002     49.063800000000001     45.410450000000004
