60

C      48.889949999999985     47.742249999999991     39.666699999999992
C      48.848949999999995     48.362249999999989     41.150100000000002
C      48.411250000000003     50.167850000000001     46.053500000000007
C      45.700749999999992     45.775349999999989     55.798000000000009
C      49.023449999999990     50.018349999999998     47.443500000000007
C      46.013349999999996     47.110549999999989     55.312600000000010
C      47.293849999999999     49.227149999999995     45.749700000000004
C      45.643650000000001     44.720450000000000     54.805699999999995
C      48.469450000000002     49.044749999999993     48.358300000000007
C      46.307650000000002     47.514349999999993     53.931300000000000
C      45.194349999999993     47.901049999999998     46.875900000000001
C      45.054049999999997     46.566849999999988     47.585600000000007
C      45.554650000000002     45.105649999999997     49.791300000000000
C      47.086750000000002     47.355750000000000     50.566300000000005
C      46.569550000000000     48.589449999999999     46.947499999999998
C      45.952049999999993     44.980849999999990     53.452500000000008
C      45.521749999999990     46.245750000000001     48.898400000000002
C      45.932349999999992     45.093750000000000     51.169600000000010
C      47.169849999999990     48.163349999999994     48.133900000000004
C      46.215749999999993     46.384949999999989     53.084300000000006
C      46.593049999999998     47.142449999999997     49.112699999999997
C      46.424050000000001     46.411649999999995     51.568700000000000
C      48.883149999999993     48.813649999999996     49.746100000000006
C      48.219349999999999     47.956449999999990     50.816700000000004
C      48.924749999999996     51.334149999999994     45.310700000000004
C      49.964149999999997     52.193950000000001     45.899600000000000
C      50.610049999999994     51.720549999999989     47.064799999999998
C      50.103249999999996     50.842349999999996     48.098199999999999
C      50.866149999999998     50.448849999999993     49.298700000000004
C      50.068049999999992     49.697449999999989     50.191499999999998
C      47.173349999999992     48.332549999999998     44.605400000000003
C      48.222850000000001     48.305849999999992     43.631400000000006
C      48.361649999999990     51.582449999999994     43.973099999999995
C      48.493949999999991     52.272250000000000     42.866700000000002
C      48.210549999999991     47.405249999999995     42.443800000000003
H      47.925750000000001     47.595349999999996     39.287300000000002
H      49.359850000000002     48.594049999999996     39.172800000000002
H      49.696149999999996     48.908549999999991     41.505300000000005
H      48.302149999999990     49.353650000000002     41.128900000000002
H      45.483049999999999     45.514449999999997     56.827199999999998
H      46.120249999999992     48.203849999999989     55.740600000000008
H      45.439949999999989     43.650649999999999     55.138399999999997
H      46.688849999999995     48.581149999999994     53.384700000000002
H      44.303649999999998     46.151849999999996     46.943300000000001
H      45.706249999999990     42.882649999999998     52.039600000000000
H      44.920449999999995     44.117849999999990     50.100600000000007
H      48.521049999999995     48.120649999999998     51.836400000000005
H      50.306549999999994     53.117350000000002     45.457799999999999
H      51.645249999999997     52.275250000000000     47.546399999999998
H      51.721449999999997     51.214149999999989     49.661400000000008
H      50.084150000000001     49.572149999999993     51.223000000000006
H      46.391249999999992     47.514449999999997     44.501700000000007
H      49.575349999999993     46.879849999999990     39.914800000000007
H      48.945749999999997     49.258249999999990     43.679500000000004
H      47.823649999999994     50.642550000000000     44.136400000000002
H      48.922549999999994     46.439149999999998     42.320100000000004
H      47.225249999999996     46.936149999999998     42.498400000000011
N      46.019849999999998     44.014349999999993     52.313600000000001
O      48.215949999999999     52.873350000000002     41.909399999999998
O      44.278550000000003     48.327950000000001     46.136900000000004
