18

C      48.736249999999991     47.474041799999995     47.669199999999989
C      47.547950000000000     48.253611800000002     48.109199999999994
C      48.642649999999996     46.962345799999994     46.336799999999997
C      46.178049999999999     48.025851799999998     47.426999999999992
C      49.861849999999997     47.795551799999998     48.567699999999995
C      47.439549999999997     49.024501799999996     49.360599999999998
C      47.244050000000001     46.757387800000004     45.781499999999994
C      46.054949999999998     47.245351799999995     46.272999999999996
C      49.832650000000001     48.716761800000000     49.653399999999998
C      48.591049999999996     49.152211800000003     50.250399999999992
H      49.524149999999999     46.687123799999995     45.803799999999995
H      45.314749999999997     48.833151799999996     47.581399999999995
H      50.748450000000005     47.218091799999996     48.445099999999989
H      46.563749999999999     49.382951800000001     49.840700000000005
H      46.909949999999995     46.227148200000002     44.710699999999996
H      45.251549999999995     47.285851800000003     45.528899999999993
H      50.744950000000003     49.066721799999996     50.101999999999997
H      48.516149999999996     49.772851799999998     51.289300000000004
