17

C      48.723149999999990     47.515369999999990     47.539149999999992
C      48.173449999999995     48.708869999999997     48.279450000000004
C      46.987749999999998     49.562369999999994     47.963850000000001
C      48.908250000000002     49.439769999999996     49.308850000000000
C      47.950849999999996     46.697859999999999     46.640149999999998
C      49.347150000000006     46.176909999999999     47.441650000000003
C      46.804249999999996     50.613070000000000     48.925750000000001
C      48.039849999999994     50.646369999999997     49.781349999999996
C      48.732549999999996     45.126779999999997     46.490349999999999
C      49.583149999999996     44.802899999999994     47.745950000000001
H      46.475149999999992     49.164969999999997     47.021549999999998
H      49.773450000000004     49.086569999999995     49.742049999999999
H      46.982949999999995     47.093069999999997     46.138249999999992
H      49.188949999999998     44.422829999999998     48.719349999999999
H      46.226549999999996     51.577170000000002     48.804150000000000
H      48.504649999999998     51.285670000000003     50.506650000000000
H      49.120150000000002     44.998949999999994     45.493350000000000
