25

C      46.787199999999999     49.738000000000000     45.885399999999997
C      47.502000000000002     49.265699999999995     47.030400000000000
C      48.991400000000006     48.807500000000005     46.867699999999999
C      49.627599999999994     49.299099999999996     45.637100000000004
C      48.932899999999997     49.786599999999993     44.637200000000007
C      47.445500000000003     49.967500000000001     44.636499999999998
C      50.014900000000004     48.384100000000004     47.880700000000004
C      48.026299999999999     48.669100000000000     49.677999999999997
C      49.067699999999995     47.769999999999996     50.260199999999998
C      49.488899999999994     48.301500000000004     49.083299999999994
C      46.813700000000004     48.420599999999993     50.515400000000000
C      46.714000000000006     47.118200000000002     51.344800000000006
C      47.823799999999999     46.385999999999996     51.714900000000000
C      45.940099999999994     49.371600000000001     50.625399999999999
H      45.729099999999995     49.822899999999990     46.032499999999999
H      46.804600000000001     48.871399999999994     47.662400000000005
H      50.780600000000000     49.301800000000000     45.756399999999999
H      49.408899999999996     50.178399999999996     43.705600000000004
H      47.013600000000004     50.578299999999999     43.849800000000002
H      50.973599999999998     48.081999999999994     47.555500000000002
H      45.710500000000003     46.844999999999999     51.569900000000004
H      47.719199999999994     45.421700000000001     52.294399999999996
H      46.230899999999998     50.133699999999990     49.862500000000011
H      45.026400000000002     49.076800000000006     51.156600000000005
N      49.047999999999995     46.788700000000006     51.245699999999999
