93

C      48.820449999999994     53.368850000000002     43.993299999999998
C      49.241149999999998     46.664450000000002     48.524799999999999
C      48.040749999999996     45.770449999999997     48.604600000000005
C      47.567650000000000     43.702150000000003     47.135200000000005
C      50.120449999999998     44.431849999999997     46.071200000000005
C      50.366050000000001     46.670650000000009     47.500300000000010
C      47.689650000000000     45.178350000000009     47.305499999999995
C      46.797649999999997     42.417650000000009     47.536799999999999
C      51.204249999999995     45.379150000000010     47.169699999999999
C      45.476349999999996     44.895250000000004     49.789900000000003
C      48.740349999999999     44.444950000000006     46.585599999999999
C      49.589050000000000     47.140850000000000     49.774999999999991
C      48.426949999999998     47.235849999999999     50.745000000000005
C      47.188949999999998     46.675650000000005     50.479800000000012
C      46.662849999999999     45.848950000000002     49.344799999999992
C      45.770949999999999     42.751850000000005     48.505500000000005
C      45.013050000000000     43.608950000000007     49.531800000000004
C      50.807449999999996     43.059250000000006     45.759399999999999
C      50.681449999999991     44.067750000000004     44.788399999999996
C      51.858550000000001     46.666650000000004     47.546700000000001
C      52.088450000000002     46.959050000000005     49.054100000000005
C      50.960549999999998     47.891750000000002     49.963100000000004
C      46.417249999999996     45.704850000000008     46.417700000000011
C      45.038049999999998     45.769450000000006     47.218600000000002
C      45.372050000000002     45.958950000000002     48.778700000000001
C      44.701249999999995     42.215649999999997     49.257000000000005
C      49.701150000000005     47.257450000000006     46.276200000000003
C      43.732549999999996     47.212649999999996     50.481700000000004
C      47.329450000000001     41.140850000000000     46.741300000000010
C      44.275649999999999     46.840649999999997     49.232300000000002
C      48.913350000000001     51.308450000000008     47.325299999999999
C      46.856249999999996     53.121549999999999     51.997500000000002
C      49.582549999999998     51.624449999999996     48.575100000000006
C      49.717250000000000     53.075350000000000     48.487900000000010
C      49.973749999999988     51.053150000000002     51.200000000000003
C      47.780449999999995     52.231049999999996     51.422300000000007
C      49.281849999999999     51.042349999999999     49.937600000000003
C      49.205050000000000     52.284550000000010     50.922499999999999
C      48.808050000000001     52.448549999999997     46.502099999999999
C      49.316449999999996     53.651150000000001     47.235600000000005
C      48.300049999999999     52.339449999999999     44.990500000000004
C      48.380849999999995     49.754750000000001     46.653300000000002
C      47.459449999999997     49.953450000000004     45.422699999999992
C      47.889949999999999     51.090350000000001     44.509699999999995
C      49.676449999999996     53.543149999999997     49.931500000000000
C      49.222249999999995     55.249650000000003     47.096299999999999
C      49.720149999999997     48.932550000000006     46.132700000000000
C      51.210249999999995     54.056350000000009     50.320700000000002
C      47.271249999999995     48.728350000000006     44.437200000000004
C      46.202649999999998     53.998550000000009     52.659300000000002
H      51.960150000000006     44.267949999999999     47.207999999999998
H      48.686949999999996     47.916350000000008     51.646000000000001
H      46.340550000000000     46.856049999999996     51.077200000000005
H      44.398049999999998     41.223750000000010     49.243399999999994
H      51.412950000000002     44.644950000000009     44.225700000000003
H      52.244749999999996     47.531649999999999     46.859300000000005
H      52.905149999999999     47.499150000000000     49.538600000000002
H      52.101749999999988     46.163550000000001     49.644500000000001
H      50.882750000000009     48.771950000000004     49.464399999999998
H      51.243749999999999     47.905950000000004     50.950600000000001
H      46.325749999999999     45.679349999999999     45.387300000000003
H      46.762349999999998     46.752250000000004     46.218100000000000
H      44.603749999999998     46.639250000000004     46.935800000000000
H      44.338549999999998     45.099050000000005     47.126800000000003
H      48.490449999999996     47.283450000000002     46.515000000000001
H      49.892450000000004     46.851849999999999     45.268200000000007
H      44.131349999999998     46.725949999999997     51.372599999999991
H      43.094850000000001     48.112949999999998     50.506799999999998
H      48.453749999999999     40.954949999999997     46.829200000000000
H      47.108149999999995     41.260149999999996     45.641900000000007
H      46.813649999999996     40.252449999999996     47.306300000000007
H      44.039749999999998     47.444450000000003     48.327200000000005
H      49.676750000000006     50.595150000000004     52.120300000000000
H      47.565849999999998     51.323050000000009     51.745600000000003
H      48.072249999999997     49.310450000000003     47.591100000000004
H      46.502749999999999     50.192549999999997     45.871500000000005
H      47.463949999999997     51.315849999999998     43.421800000000005
H      48.977449999999997     54.555549999999997     49.995000000000005
H      49.382849999999998     55.747550000000004     48.116600000000005
H      49.948749999999997     55.447749999999999     46.447400000000002
H      48.337550000000000     55.530850000000001     46.501499999999993
H      50.572150000000001     49.307249999999996     46.678000000000004
H      49.883150000000001     49.163350000000008     44.866200000000006
H      51.836250000000000     53.125349999999997     50.353900000000010
H      51.734749999999998     54.744650000000007     49.579500000000010
H      51.517350000000000     54.664950000000005     51.329999999999998
H      46.408449999999995     48.557450000000003     43.664100000000005
H      47.717250000000000     47.998950000000008     45.155799999999999
H      47.987849999999995     49.100049999999996     43.655200000000001
H      45.135849999999998     53.642550000000000     52.664900000000003
H      45.971950000000000     54.976650000000006     52.932099999999998
O      48.302149999999997     53.700749999999999     43.067900000000002
O      50.538249999999998     41.942949999999996     45.350300000000004
