18

C      48.645549999999993     47.777749999999990     47.811599999999999
C      47.665749999999989     48.588649999999994     48.268799999999999
C      49.265249999999995     46.964349999999996     48.751700000000000
C      47.577550000000002     49.139849999999996     49.691000000000003
C      48.864149999999995     47.398649999999996     46.425299999999993
C      46.850949999999997     49.278049999999993     47.354600000000005
C      49.189549999999997     47.202049999999993     50.145299999999992
C      48.291749999999993     48.309349999999995     50.618700000000004
C      48.115249999999989     48.135249999999992     45.487200000000001
C      47.210849999999994     49.175349999999995     45.913600000000002
H      49.803049999999999     45.967349999999996     48.576700000000002
H      46.884850000000000     49.955550000000002     49.600899999999996
H      49.765349999999998     46.943749999999994     46.047200000000004
H      46.196950000000001     50.032650000000004     47.707899999999995
H      49.533149999999992     46.580349999999996     51.047600000000003
H      48.081350000000000     48.406549999999996     51.660399999999996
H      48.299349999999990     48.492349999999995     44.339600000000004
H      46.504549999999995     49.495649999999998     45.251700000000000
