18

C      48.215849999999996     48.265799999999984     47.205554999999990
C      48.217349999999996     48.142499999999991     48.775064999999998
C      46.901450000000004     48.128300000000003     46.587365000000005
C      46.906750000000002     48.388399999999997     49.370464999999996
C      49.470749999999995     47.892499999999991     46.562505000000002
C      49.352850000000004     47.768200000000000     49.544745000000006
C      45.571050000000000     48.305900000000001     47.100215000000006
C      45.690950000000001     48.383499999999991     48.490555000000001
C      50.637450000000001     47.752099999999992     47.330935000000011
C      50.558950000000003     47.806699999999999     48.772964999999999
H      46.632950000000001     48.023800000000001     45.468104999999994
H      46.686250000000001     48.560799999999993     50.491045000000000
H      49.628850000000000     48.076199999999993     45.481885000000005
H      49.072649999999996     47.444499999999998     50.531895000000006
H      44.492750000000001     48.146399999999993     46.688185000000004
H      44.814650000000000     48.605100000000000     48.811365000000009
H      51.464050000000000     47.450899999999997     46.868965000000003
H      51.507249999999999     47.394900000000000     49.022575000000003
