18

C      48.166932499999987     48.603499999999997     47.651049999999991
C      48.043312499999999     47.318200000000004     48.385750000000002
C      47.042232499999997     48.969699999999989     46.772049999999993
C      46.728952500000005     46.720900000000000     48.754449999999991
C      49.439232500000003     49.156800000000004     47.197949999999992
C      49.206592500000014     46.854799999999997     49.073650000000001
C      45.898112499999996     48.076700000000002     46.911550000000005
C      45.698902500000003     47.135700000000000     47.863349999999997
C      50.594682500000005     48.383399999999995     47.503950000000003
C      50.461542500000007     47.188699999999997     48.369050000000001
H      47.374862500000006     49.888400000000004     46.274149999999992
H      46.287332500000005     46.032200000000003     49.513549999999995
H      49.485672500000007     50.006399999999999     46.559449999999998
H      49.357972500000002     45.993600000000001     49.950050000000005
H      45.147261499999999     48.346100000000007     46.049949999999995
H      44.624557499999995     46.835400000000007     47.742450000000005
H      51.375442500000005     48.641499999999994     46.762050000000002
H      51.315572500000002     46.683800000000005     48.771950000000004
