48

C      48.264049999999997     49.138300000000001     46.841799999999992
C      48.287750000000003     50.464700000000008     47.774099999999997
C      45.743450000000003     46.668599999999998     50.431599999999996
C      45.810350000000007     47.926500000000004     51.068999999999996
C      47.721250000000005     47.806800000000010     47.317099999999989
C      47.650250000000007     50.376000000000005     49.030399999999993
C      46.170550000000006     46.852699999999999     48.933599999999991
C      46.635050000000007     49.056100000000001     50.791899999999991
C      47.191750000000006     47.889700000000005     48.630499999999991
C      47.344350000000006     49.052400000000006     49.495599999999989
C      49.175350000000009     49.257599999999996     45.827700000000000
C      50.171150000000004     50.348299999999995     45.536899999999996
C      49.914950000000005     51.686399999999992     45.993299999999998
C      49.018750000000004     51.578200000000010     47.206600000000002
C      45.285650000000004     48.117400000000004     52.460199999999993
C      44.449450000000006     47.102699999999999     52.819099999999999
C      44.315250000000006     45.827399999999997     52.246199999999995
C      44.967150000000004     45.584699999999998     51.011599999999994
C      49.322650000000003     47.983100000000007     45.093199999999989
C      49.978350000000013     47.941000000000003     43.735099999999996
C      50.326350000000012     49.290199999999999     43.323299999999996
C      51.076850000000000     49.958300000000008     44.352399999999996
C      48.731550000000006     46.682800000000000     45.548999999999999
C      47.919150000000002     46.490700000000004     46.714999999999996
C      47.099350000000008     45.266400000000004     47.346799999999995
C      45.856850000000009     45.939300000000003     47.838599999999992
C      45.051450000000003     46.608400000000003     46.826999999999991
C      47.907350000000008     44.172899999999998     48.432099999999998
H      47.896150000000006     51.360500000000002     49.567399999999999
H      46.763350000000003     50.099400000000003     51.498599999999989
H      50.196150000000003     52.564200000000000     45.596499999999999
H      45.337850000000003     48.974299999999999     53.159799999999997
H      43.909150000000004     47.045299999999997     53.703600000000002
H      43.699350000000003     45.029600000000002     52.697799999999994
H      45.233850000000004     44.620100000000008     50.395899999999990
H      49.457950000000004     47.305300000000003     42.991499999999995
H      50.254650000000005     49.792800000000000     42.296399999999998
H      48.849550000000015     45.859800000000007     44.832099999999990
H      47.037650000000006     44.697200000000009     46.408099999999997
H      45.138250000000006     45.111000000000004     48.301899999999996
H      44.545350000000006     47.501300000000001     47.498399999999997
H      45.683250000000008     47.025000000000006     46.122899999999994
H      43.976450000000007     46.192500000000010     46.482999999999997
H      48.733650000000004     44.437600000000003     49.110299999999988
H      48.462350000000008     43.463600000000000     47.565199999999997
H      47.146650000000008     43.397900000000007     48.906099999999988
O      52.300649999999997     50.107500000000002     44.352799999999995
O      48.660550000000008     52.602099999999993     47.846799999999995
