18

C      47.116249999999994     48.291749999999993     48.477209999999992
C      48.309350000000002     47.382050000000000     48.590759999999996
C      47.079050000000002     49.538350000000001     49.221919999999997
C      49.651249999999997     47.949449999999992     48.965319999999998
C      46.167149999999999     47.745550000000001     47.590089999999996
C      48.307449999999996     46.019749999999995     47.905969999999996
C      48.174950000000003     50.015849999999993     49.926019999999994
C      49.470049999999993     49.182250000000003     49.622419999999991
C      46.158149999999999     46.779750000000000     46.468129999999995
C      47.234149999999993     45.915950000000002     46.867159999999998
H      46.196449999999992     50.160750000000000     49.270219999999995
H      50.687249999999999     47.538350000000001     48.778520000000000
H      45.312750000000001     48.474349999999994     47.559550000000002
H      48.765149999999998     45.311549999999990     48.304400000000001
H      48.297549999999994     50.936950000000003     50.520920000000004
H      50.282649999999997     49.683549999999990     49.948920000000001
H      45.391749999999995     46.666850000000004     45.479079999999996
H      47.604250000000000     45.063049999999997     46.176029999999997
