38

C      49.423000000000002     47.478239999999992     49.341700000000003
C      48.586100000000009     48.531140000000008     50.119400000000006
C      44.798400000000008     47.004370000000002     47.768100000000011
C      45.170600000000000     47.975110000000001     48.781399999999998
C      46.737100000000005     47.241560000000000     45.481300000000012
C      47.121000000000002     48.955520000000000     50.037200000000006
C      45.197200000000002     45.486090000000004     47.515400000000007
C      46.430300000000010     48.341140000000010     46.097600000000007
C      45.897500000000001     48.029670000000003     47.535000000000004
C      46.549200000000006     48.399720000000002     48.802600000000005
C      50.892000000000003     47.253219999999999     49.729000000000006
C      51.667400000000008     48.082210000000003     50.603900000000003
C      50.909399999999998     49.214739999999992     51.147700000000007
C      49.440700000000000     49.191909999999993     51.099800000000009
C      47.550100000000008     47.000709999999998     44.154900000000005
C      48.816200000000002     47.569330000000001     43.856400000000001
C      49.948900000000002     46.493020000000001     48.872700000000002
C      46.404200000000010     49.856510000000000     51.096700000000006
C      47.295600000000000     50.156100000000002     52.242899999999999
C      49.028799999999997     50.480760000000004     51.885400000000011
C      44.049399999999999     46.400790000000001     46.677900000000001
H      46.333300000000001     49.513970000000000     45.754899999999999
H      52.637300000000003     47.894980000000004     50.925800000000002
H      51.422699999999999     49.888469999999998     51.678300000000000
H      46.290900000000001     46.296059999999997     45.989400000000010
H      46.935099999999998     46.242609999999999     43.594600000000007
H      49.467300000000002     48.179569999999998     44.329500000000003
H      49.465300000000006     47.291660000000000     43.031399999999998
H      50.139200000000010     46.431950000000001     47.841300000000011
H      46.107300000000002     50.722360000000009     50.499299999999998
H      45.686200000000007     49.200940000000003     51.454600000000006
H      46.672000000000004     50.772059999999996     52.720700000000001
H      47.140500000000010     49.352720000000005     52.968600000000002
H      49.871800000000000     50.557659999999998     52.475100000000005
H      49.097900000000003     51.462660000000000     51.321900000000007
H      44.540900000000001     46.765309999999999     45.685800000000008
H      43.362699999999997     45.495580000000004     46.501000000000012
O      45.624000000000002     44.537340000000000     47.982800000000005
