16

C      46.597000000000001     47.457899999999995     47.751999999999988
C      47.445000000000007     48.814200000000007     47.977599999999995
C      48.837800000000016     48.504799999999996     47.342299999999994
C      49.658000000000008     47.124299999999998     47.352100000000000
C      46.608100000000007     46.785100000000000     48.994199999999992
H      47.077800000000003     46.746400000000001     46.908600000000000
H      45.627200000000002     47.982000000000006     47.549799999999998
H      47.393299999999996     49.029400000000003     49.086999999999996
H      46.909199999999998     49.721100000000000     47.741000000000000
H      48.435900000000004     48.544900000000005     46.231600000000000
H      49.544200000000004     49.401900000000005     47.515099999999997
H      50.372799999999998     47.116000000000007     46.436499999999995
H      50.091800000000006     47.077000000000005     48.421199999999999
H      47.540800000000004     46.629899999999999     49.616699999999994
H      48.963000000000008     46.278900000000000     47.247599999999998
O      45.745300000000007     46.408900000000003     49.768400000000000
