72

C      50.905649999999987     46.636849999999995     46.260049999999993
C      51.190749999999994     45.381850000000000     45.344250000000002
C      46.357050000000001     45.042549999999999     47.477550000000001
C      46.526250000000005     43.772950000000002     46.691549999999999
C      49.777450000000002     46.752749999999999     46.928449999999998
C      50.221350000000001     44.481150000000000     45.613849999999999
C      47.363450000000000     46.072949999999999     47.500050000000002
C      47.847350000000006     43.422150000000002     46.199249999999999
C      48.621849999999995     45.711849999999998     46.854550000000010
C      48.877949999999998     44.541550000000001     46.287349999999996
C      51.919950000000000     47.651949999999999     46.391550000000002
C      53.003150000000005     47.630450000000003     45.474049999999998
C      53.085149999999999     46.527750000000005     44.511850000000003
C      52.305750000000003     45.388750000000002     44.220950000000002
C      44.962850000000003     45.286850000000001     47.961450000000006
C      44.321849999999998     46.441949999999999     48.703650000000003
C      44.328050000000005     44.322650000000003     47.161450000000009
C      45.187650000000005     43.465450000000004     46.325049999999997
C      52.771349999999998     44.213750000000005     43.559150000000002
C      43.392650000000003     48.405050000000010     50.796849999999999
C      44.382949999999994     49.591750000000012     46.807449999999996
C      44.669950000000000     48.065750000000001     46.961050000000007
C      42.897949999999994     50.984549999999999     51.053049999999992
C      43.167749999999998     49.549350000000011     51.743550000000006
C      44.492950000000008     50.660649999999997     47.795850000000009
C      44.496350000000007     47.807549999999999     48.454050000000002
C      43.494349999999997     51.445750000000004     49.780149999999999
C      43.173850000000002     49.296749999999996     53.159450000000000
C      43.820149999999998     50.234149999999993     48.995950000000001
C      43.819749999999999     48.816549999999999     49.462650000000004
C      44.677250000000001     50.345350000000003     45.534550000000003
C      44.459750000000000     49.475149999999992     44.346550000000001
C      44.804749999999999     47.986550000000001     44.587750000000000
C      45.012050000000002     47.294350000000001     45.756750000000004
C      42.777850000000001     52.221350000000001     51.856850000000001
C      42.312449999999998     52.359349999999999     53.253049999999995
C      42.205050000000000     51.300750000000001     54.244549999999997
C      42.862250000000003     49.993950000000005     54.298949999999998
C      44.616550000000004     51.842750000000002     45.761749999999999
C      44.500050000000002     52.387050000000002     44.420850000000002
C      44.044150000000002     51.669550000000008     43.226150000000004
C      44.255350000000007     50.207349999999998     43.042650000000002
C      44.374150000000000     52.062150000000003     47.286850000000001
C      45.873750000000001     51.289650000000002     48.036449999999995
C      43.753749999999997     49.511550000000000     41.833649999999999
H      49.635850000000005     47.918550000000003     47.052450000000000
H      50.424149999999997     43.685949999999998     44.775050000000000
H      47.030550000000005     47.213950000000004     47.913249999999998
H      47.793549999999996     42.495550000000001     45.503349999999998
H      51.834750000000000     48.477250000000005     47.140450000000001
H      53.562150000000003     48.619150000000005     45.431850000000004
H      54.239350000000002     46.619950000000003     43.935650000000003
H      43.123050000000006     44.214750000000002     46.893850000000000
H      44.830550000000002     42.641550000000002     45.771650000000001
H      43.051649999999995     47.447850000000003     51.049750000000003
H      43.442949999999996     46.187049999999999     49.431850000000004
H      43.856049999999996     52.311850000000000     49.234450000000002
H      43.472149999999999     48.292349999999992     53.081450000000004
H      45.006150000000005     47.480450000000012     43.567450000000001
H      45.434749999999994     46.057050000000004     45.819949999999999
H      42.706950000000006     53.286450000000009     51.333250000000000
H      42.288849999999996     53.148050000000005     53.818750000000001
H      41.760649999999998     51.825749999999999     55.131550000000011
H      44.450950000000006     53.504449999999999     44.757750000000001
H      43.509249999999994     52.290349999999997     42.265750000000004
H      43.962050000000005     52.813250000000004     47.882349999999995
H      46.808949999999996     50.790150000000004     47.333150000000003
H      46.166449999999998     51.107849999999999     49.054549999999999
H      43.342449999999999     48.641449999999999     42.341850000000001
H      43.023750000000007     49.249950000000005     55.212849999999996
O      53.398849999999996     43.583350000000003     42.961050000000000
O      44.363349999999997     49.474250000000005     40.787150000000004
