46

C      50.142349999999993     50.397999999999996     50.474649999999990
C      48.653349999999996     50.363000000000007     49.971449999999997
C      47.241749999999996     52.028399999999998     47.886449999999996
C      47.660049999999998     48.381499999999996     50.840450000000004
C      45.780749999999998     49.969400000000000     45.009749999999997
C      47.453350000000000     49.557499999999997     49.809550000000002
C      46.369850000000000     50.953899999999997     47.111949999999993
C      44.992849999999997     46.490500000000004     46.747949999999996
C      45.456449999999997     47.480499999999999     45.752150000000000
C      46.602649999999997     47.707100000000004     49.045749999999998
C      45.892749999999999     48.901100000000007     45.979450000000000
C      47.110750000000003     48.889299999999999     48.457650000000001
C      46.611350000000002     49.499500000000005     47.212449999999997
C      52.422249999999998     49.314100000000003     50.990150000000000
C      51.220349999999996     49.453899999999997     50.359549999999999
C      52.296849999999999     49.036700000000003     49.592649999999992
C      49.634349999999998     51.387499999999996     49.596249999999998
C      45.680950000000003     45.677600000000005     47.739549999999994
C      45.779550000000000     44.264599999999994     47.600049999999996
C      45.176450000000003     43.970000000000006     46.388649999999998
C      44.620849999999997     46.480700000000006     45.273550000000000
C      46.109850000000002     46.343700000000005     48.871849999999995
C      46.891449999999999     46.912900000000000     50.186849999999993
C      47.355750000000000     45.681500000000007     51.162549999999996
C      45.587249999999997     51.645000000000003     48.311650000000000
C      46.066650000000003     51.239399999999996     45.760349999999995
C      44.573450000000001     44.748399999999997     45.194350000000000
H      47.673049999999996     52.897900000000000     47.357249999999993
H      45.644550000000002     49.800699999999999     43.950749999999999
H      46.542949999999998     49.980899999999998     50.401550000000000
H      52.320450000000001     49.639500000000005     51.834649999999996
H      52.221350000000008     48.488800000000005     48.647349999999996
H      49.702849999999998     51.813700000000004     48.529249999999998
H      46.201250000000002     43.836700000000000     48.575149999999994
H      44.688150000000000     43.102100000000000     46.073650000000001
H      47.039650000000002     48.887999999999998     51.771550000000005
H      48.654449999999997     47.965200000000003     50.889349999999993
H      47.289450000000002     46.131599999999999     52.049250000000001
H      48.411349999999999     45.428800000000003     50.885049999999993
H      46.946350000000002     44.819899999999997     50.811949999999996
H      45.508650000000003     51.161499999999997     49.335549999999998
H      45.157150000000001     52.480200000000004     48.183250000000001
H      48.199350000000003     51.221399999999996     48.040449999999993
H      45.944850000000002     52.116599999999998     45.160249999999998
H      43.577750000000002     44.418900000000001     44.907349999999994
H      45.468350000000001     44.989200000000004     44.406649999999999
