5

C      47.727799999999988     48.041749999999986     47.922719999999998
H      47.447299999999998     48.858450000000005     47.089880000000001
H      48.842900000000000     47.705449999999999     48.013719999999999
H      47.316400000000002     47.141549999999995     47.409630000000000
H      47.157100000000000     48.161949999999997     48.910119999999999
