22

C      46.182599999999987     49.252849999999995     47.723809999999993
C      47.555799999999991     48.503850000000000     47.541309999999996
C      47.735199999999992     47.316749999999999     48.447834499999999
C      48.053799999999995     48.178049999999999     46.199910000000003
C      48.785600000000002     46.408850000000001     47.982510000000005
C      48.373599999999996     48.891049999999993     48.787917000000007
C      46.809799999999996     46.874249999999989     49.452940000000005
C      49.219299999999990     47.481049999999996     45.808210000000003
C      49.529799999999994     46.321950000000001     46.739810000000006
C      47.578599999999994     49.270049999999998     50.033430000000010
C      46.783400000000000     48.073549999999997     50.286600000000007
H      45.508099999999999     48.842050000000000     46.893010000000004
H      46.201599999999999     50.377549999999999     47.431709999999995
H      45.528999999999996     48.882549999999995     48.488645000000005
H      47.549499999999995     48.746349999999993     45.429310000000001
H      49.006399999999999     45.622450000000001     48.597719000000012
H      49.435599999999994     49.115549999999999     48.544458000000006
H      46.351699999999994     46.070749999999990     49.780820000000006
H      49.785799999999995     47.724949999999993     44.830510000000004
H      50.491900000000001     45.785550000000001     46.628410000000002
H      47.075899999999990     49.712249999999997     50.812420000000003
H      46.079799999999992     47.974649999999997     51.169489999999996
