16

C      49.138883499999991     48.043649999999992     47.119449999999993
C      47.941573499999997     48.990750000000006     48.865050000000011
C      46.128662499999997     47.289249999999996     48.178850000000011
C      49.777253500000008     47.108850000000004     46.365450000000010
C      49.228753500000003     48.678449999999998     48.308050000000009
C      46.948083499999996     46.542950000000005     47.193449999999999
C      48.180953499999994     47.088949999999997     46.720450000000000
C      46.778863500000000     49.772850000000005     49.683650000000000
C      46.659313499999996     48.471350000000001     48.811350000000004
H      45.738776500000000     46.846950000000007     49.086150000000004
H      50.261223500000000     46.383849999999995     46.861750000000001
H      50.059133499999994     49.181950000000001     48.476849999999999
H      46.565633499999997     45.536550000000005     46.779350000000008
H      50.214903499999998     47.150949999999995     45.240650000000002
H      45.979368500000000     50.463449999999995     49.270049999999998
H      46.724193499999998     49.691350000000000     50.759349999999998
