18

C      48.077249999999992     47.459699999999991     47.925549999999987
C      48.255350000000000     48.881900000000002     47.954250000000002
C      48.512250000000002     46.760700000000000     49.172749999999994
C      48.712650000000004     49.574100000000001     49.139750000000006
C      47.796149999999997     46.427099999999996     46.909350000000003
C      48.056849999999997     49.531800000000004     46.691249999999997
C      48.964649999999999     47.566100000000006     50.231250000000003
C      48.636350000000000     49.000100000000003     50.360550000000003
C      47.673150000000000     47.152400000000000     45.670150000000007
C      47.500149999999998     48.606400000000008     45.675550000000001
H      48.289549999999998     45.864899999999999     49.533850000000001
H      48.187949999999994     50.622100000000003     49.082049999999995
H      47.595049999999993     45.311199999999999     47.115449999999996
H      47.959449999999997     50.688800000000001     46.843750000000000
H      48.918450000000000     47.383299999999998     51.239850000000004
H      48.204150000000006     49.505399999999995     51.225049999999996
H      47.103450000000002     46.866199999999999     44.857650000000007
H      47.035350000000001     48.979199999999992     44.760149999999996
