18

C      48.547100000000000     48.705599999999983     48.546899999999994
C      47.365800000000000     47.929899999999989     48.254500000000000
C      48.840700000000005     49.920499999999990     47.822099999999999
C      46.291400000000003     48.491099999999989     47.403900000000000
C      49.785000000000004     48.237699999999990     49.266500000000001
C      47.504100000000001     46.626099999999994     48.785400000000003
C      48.064699999999995     50.333599999999990     46.716299999999997
C      46.806599999999996     49.598799999999997     46.587200000000003
C      49.609299999999998     46.972899999999996     49.886999999999993
C      48.415100000000002     45.961699999999993     49.747700000000002
H      49.741899999999994     50.547299999999993     48.252000000000002
H      45.298999999999999     48.063999999999993     47.190400000000004
H      50.353600000000007     49.005699999999990     48.930100000000003
H      46.662299999999995     45.947199999999995     48.768899999999995
H      48.377900000000004     51.061199999999999     45.756999999999998
H      46.185300000000005     50.046199999999999     45.802399999999999
H      50.701000000000001     46.285199999999989     49.904900000000005
H      48.285999999999994     44.938800000000001     50.243000000000002
