6

C      47.427099999999989     47.750999999999991     47.455860000000001
C      48.486199999999997     48.028299999999994     48.432690000000008
H      47.210399999999993     48.194899999999997     46.480240000000009
H      46.578699999999998     47.317100000000003     48.028909999999996
H      49.421300000000002     48.682899999999997     48.365340000000003
H      48.270299999999992     47.743599999999994     49.519759999999991
