18

C      47.986449999999991     48.767449999999997     48.479684999999989
C      47.142849999999996     48.229850000000006     47.516934999999989
C      47.437449999999998     48.717750000000002     49.838284999999999
C      45.902850000000001     47.546350000000004     47.571294999999992
C      49.240149999999993     49.365550000000006     48.085464999999999
C      47.803049999999999     47.667050000000003     46.254074999999986
C      46.293149999999997     47.934850000000004     50.032884999999993
C      45.717250000000000     47.091950000000004     48.930034999999990
C      49.868350000000000     48.925050000000006     46.876992999999999
C      49.125549999999997     48.015850000000007     45.988075000000023
H      47.838650000000001     49.161250000000003     50.824074999999993
H      45.533249999999995     46.797050000000006     46.865121000000002
H      49.653250000000007     49.861550000000001     48.874524999999991
H      47.327249999999999     47.017749999999999     45.634575000000027
H      45.864649999999997     47.709049999999998     50.942224999999993
H      44.981749999999998     46.138449999999999     48.980644999999996
H      51.018250000000002     49.101750000000003     46.719815999999994
H      49.583250000000000     47.417750000000005     45.057775000000007
