55

C      48.014949999999985     47.378914999999992     48.137699999999995
C      48.339549999999996     48.799814999999995     47.786900000000003
C      49.557549999999985     46.800725000000000     43.674800000000005
C      48.119549999999997     46.424454999999995     47.049499999999995
C      48.941149999999986     49.260514999999998     46.423699999999997
C      48.678149999999995     46.014485000000008     44.629099999999994
C      48.516549999999995     46.977114999999998     45.680599999999998
C      49.175249999999991     48.202415000000002     45.533400000000000
C      47.800549999999994     47.356115000000003     49.655899999999988
C      47.709349999999993     48.249615000000006     50.687099999999987
C      47.859149999999993     49.710215000000005     50.287499999999994
C      48.305749999999996     49.836715000000012     48.793400000000005
C      47.644349999999996     45.932725000000005     49.878299999999996
C      48.127349999999993     45.415954999999997     51.228999999999999
C      49.701349999999984     48.660415000000000     52.429100000000005
C      48.377949999999991     47.746714999999995     52.123599999999996
C      47.659849999999992     44.756855000000002     48.837299999999999
C      47.774049999999995     45.049274999999994     47.421999999999997
C      48.258449999999996     50.763615000000001     51.192700000000002
C      48.956549999999986     51.985215000000011     50.891499999999994
C      49.298349999999992     52.212315000000004     49.541599999999988
C      48.901649999999997     51.163415000000001     48.543599999999998
C      49.885549999999995     50.445415000000011     46.349999999999994
C      49.613650000000000     51.530015000000006     47.268100000000004
C      48.318749999999994     44.009384999999995     46.326700000000002
C      47.996049999999997     44.638885000000002     44.829200000000000
C      48.423150000000000     46.211415000000002     52.340900000000005
C      46.395149999999994     49.104015000000004     50.713099999999997
C      47.916449999999998     43.846055000000007     51.154499999999999
C      48.058049999999994     43.386285000000001     49.637699999999995
C      46.366749999999996     44.588134999999994     48.006199999999993
C      49.429549999999992     52.732515000000006     51.942599999999999
H      49.775849999999984     46.554415000000006     42.620000000000005
H      49.789049999999996     52.890015000000005     48.929000000000002
H      50.371749999999984     50.798415000000006     45.400599999999997
H      49.982649999999985     52.492815000000007     47.021599999999992
H      49.501950000000001     43.693995000000001     46.309399999999997
H      47.747049999999994     43.019204999999999     46.541200000000003
H      48.197549999999985     43.801214999999999     44.194199999999995
H      46.970049999999993     44.694824999999994     45.046400000000006
H      48.630449999999989     45.983014999999995     53.379999999999995
H      47.814449999999994     48.019615000000002     52.979100000000003
H      45.963449999999995     49.764015000000001     51.586700000000008
H      47.774249999999995     50.822514999999996     52.276200000000003
H      46.667449999999995     43.727654999999999     51.187300000000008
H      48.144149999999996     43.246115000000003     51.849000000000004
H      47.662549999999996     42.276484999999994     49.435599999999994
H      48.801649999999995     43.458545000000001     48.912599999999998
H      45.737049999999996     45.360145000000003     47.904799999999994
H      46.021049999999995     43.607095000000001     47.513199999999998
H      49.834249999999997     53.723515000000006     51.662800000000004
H      49.306750000000001     52.415615000000003     53.006399999999999
H      45.560449999999996     48.622915000000006     50.382700000000000
N      49.845749999999995     47.968415000000007     44.225499999999997
O      50.439550000000004     49.344815000000011     52.833299999999994
