53

C      50.539904999999990     49.077299999999987     46.754649999999998
C      49.654404999999997     50.297799999999995     46.446449999999999
C      45.748445000000004     46.102999999999994     42.259450000000001
C      45.509884999999997     48.943899999999999     42.115849999999995
C      50.371105000000000     47.693599999999989     46.272350000000003
C      44.522554999999997     46.655099999999990     41.136550000000000
C      46.770205000000004     45.872199999999992     43.237150000000000
C      48.593105000000008     49.947699999999998     45.519350000000003
C      46.448575000000005     49.212599999999995     43.267849999999996
C      48.953405000000004     46.281099999999995     44.524050000000003
C      45.526894999999996     47.450499999999991     41.912949999999995
C      49.300105000000002     47.642799999999994     45.011749999999992
C      48.226105000000004     45.387900000000002     43.350549999999998
C      48.516805000000005     48.722200000000001     44.610050000000001
C      47.442985000000007     48.158199999999994     43.773650000000004
C      47.745145000000008     46.663600000000002     43.808949999999996
C      47.652834999999996     50.897099999999995     44.919849999999997
C      46.950535000000002     50.523899999999998     43.626649999999998
C      51.149304999999998     50.185199999999995     46.209049999999991
C      49.881304999999998     48.188899999999990     47.711050000000000
C      49.111305000000002     44.801199999999994     42.015150000000006
C      49.847404999999995     45.215999999999994     45.341149999999999
C      50.334805000000003     48.200599999999994     51.549849999999992
C      50.298805000000002     46.822299999999998     51.953549999999993
C      50.313305000000000     48.657799999999995     50.255049999999997
C      50.171504999999996     46.009299999999996     50.710449999999994
C      50.700405000000003     49.224199999999996     52.700450000000004
C      50.198004999999995     46.239800000000002     53.286950000000004
C      50.115004999999996     47.690799999999996     49.075549999999993
C      50.122805000000000     46.279200000000003     49.376350000000002
C      50.760605000000012     48.672799999999995     53.983449999999991
C      50.377004999999997     47.286799999999999     54.190550000000002
H      43.637095000000002     47.173900000000003     40.611950000000007
H      45.354005000000001     49.698399999999992     41.348450000000000
H      51.065905000000001     46.898799999999994     46.604950000000002
H      44.212685000000008     45.604699999999994     40.757750000000001
H      49.358204999999998     51.156399999999991     47.031149999999997
H      46.054254999999998     51.011200000000002     43.246150000000000
H      52.362904999999998     50.114199999999997     45.885449999999992
H      49.799005000000008     44.045299999999997     42.572350000000000
H      49.668305000000004     45.560199999999995     41.438850000000002
H      48.317605000000000     44.413199999999989     41.558949999999996
H      49.743804999999995     45.620399999999989     46.368150000000000
H      50.786805000000001     45.113599999999991     44.855850000000004
H      49.396005000000002     44.060099999999991     45.687749999999994
H      47.955205000000007     51.954700000000003     45.032250000000005
H      50.511505000000000     49.631500000000003     50.004649999999998
H      50.341004999999996     44.730400000000003     51.123350000000002
H      50.787405000000007     50.353399999999993     52.553349999999995
H      50.307704999999999     45.168399999999991     53.663150000000002
H      50.475305000000006     45.583199999999991     48.620049999999992
H      50.740305000000006     49.246899999999997     54.861649999999997
H      50.372704999999996     46.751499999999993     55.388049999999993
