22

C      47.577449999999985     51.356999999999992     49.283449999999995
C      48.049649999999993     50.089600000000004     48.705050000000000
C      48.605950000000000     49.598100000000002     49.873550000000002
C      48.847149999999992     51.449500000000000     51.133450000000003
C      47.682150000000000     52.219499999999996     50.474249999999998
H      46.872949999999996     52.145300000000006     48.728149999999999
H      48.663149999999995     48.403499999999994     49.415550000000010
H      49.073049999999988     51.938400000000001     52.013750000000002
H      46.902149999999999     52.852300000000000     50.999949999999998
N      49.446949999999994     50.204899999999995     50.792050000000003
S      48.159349999999996     46.474500000000006     45.972450000000002
S      47.719850000000001     49.550399999999996     46.749949999999998
S      47.817749999999997     43.568200000000004     44.299149999999997
S      47.234749999999998     45.833799999999997     43.986249999999998
S      46.108950000000000     47.464200000000005     45.851250000000000
S      49.771849999999993     45.376800000000003     44.904449999999997
S      47.381449999999994     47.053100000000001     47.935049999999997
S      46.478249999999996     44.929699999999997     46.454349999999998
S      48.987149999999993     45.175899999999999     47.643450000000001
S      48.850549999999991     43.147700000000000     46.433149999999998
S      49.891050000000000     47.703599999999994     46.687150000000003
S      48.321749999999987     47.890600000000006     44.319949999999999
