18

C      47.562649999999991     47.876249999999992     47.401449999999990
C      48.186050000000009     47.546349999999997     48.605829999999997
C      46.471050000000005     48.632450000000006     47.245629999999998
C      47.742350000000002     47.674749999999996     49.921239999999997
C      48.332350000000005     48.014949999999999     46.097140999999993
C      49.555450000000008     46.890250000000002     48.460909999999998
C      45.808750000000003     48.973749999999995     48.613919999999993
C      46.491650000000007     48.555549999999997     49.763619999999989
C      49.652550000000005     47.627949999999998     46.070424999999993
C      50.234850000000009     47.112650000000002     47.228899999999996
H      46.013350000000003     48.972349999999999     46.306880999999997
H      48.220650000000006     47.703150000000001     50.922770000000000
H      47.992249999999999     48.751149999999996     45.131729999999997
H      49.939250000000001     46.164349999999999     49.223489999999998
H      44.808750000000003     49.835650000000001     48.839199999999998
H      46.026949999999999     48.993449999999996     50.540889999999990
H      50.184850000000012     47.805250000000001     45.077230000000000
H      51.191249999999997     46.777149999999999     47.214549999999996
