18

C      48.089349999999982     47.384349999999991     47.951249999999995
C      47.749949999999991     48.848050000000001     48.148750000000007
C      47.650749999999995     46.844849999999994     46.758750000000006
C      47.604750000000003     49.516249999999985     46.766249999999999
C      48.695549999999990     46.452349999999996     48.863550000000004
C      47.981450000000002     49.517349999999993     49.402450000000002
C      47.264350000000000     47.517449999999997     45.615950000000012
C      47.177249999999994     48.953549999999993     45.554750000000013
C      48.733550000000001     47.079449999999994     50.130350000000007
C      48.405849999999994     48.566549999999992     50.394250000000000
H      47.774449999999995     45.744649999999993     46.656350000000003
H      47.525050000000000     50.534250000000000     47.079850000000008
H      49.083449999999992     45.439949999999996     48.472350000000006
H      47.935150000000000     50.560050000000004     49.487750000000005
H      47.117649999999990     47.389150000000001     44.608750000000001
H      46.686850000000000     49.606049999999996     44.900750000000002
H      49.313150000000000     46.462749999999993     50.859050000000011
H      48.488250000000001     49.142250000000004     51.391249999999999
