18

C      47.714349999999996     47.107149999999997     48.795899999999989
C      47.965450000000004     48.583550000000002     48.559100000000001
C      46.569450000000003     46.363250000000008     48.304500000000004
C      47.092249999999993     48.962650000000011     47.392600000000002
C      48.889250000000004     46.516550000000002     49.506399999999999
C      48.849749999999986     49.521550000000005     49.239599999999996
C      45.929949999999991     46.789450000000002     46.987499999999997
C      46.270749999999992     48.090850000000003     46.613500000000002
C      50.061949999999996     47.234650000000002     49.732299999999995
C      50.013649999999998     48.694550000000007     49.793300000000002
H      46.659849999999992     45.407150000000001     48.926199999999994
H      47.228250000000003     50.092150000000004     47.186999999999998
H      48.735050000000001     45.413750000000007     49.785800000000009
H      48.632549999999995     50.592849999999999     49.533400000000000
H      45.011150000000001     46.374250000000004     46.614000000000004
H      45.697050000000004     48.535449999999997     45.789500000000004
H      50.963349999999991     47.139449999999997     50.210499999999996
H      50.988849999999999     49.067350000000005     50.047300000000007
