11

C      48.754839999999987     48.996899999999997     47.134199999999986
C      48.157979999999995     47.754099999999994     47.498499999999993
C      47.663770000000000     46.577900000000000     47.030299999999997
C      47.530929999999998     48.088800000000006     48.988699999999994
H      48.123080000000002     47.165400000000005     49.219899999999996
H      48.566589999999991     49.890699999999995     47.636099999999999
H      49.247470000000007     49.418599999999998     46.289000000000001
H      46.855390000000000     46.109300000000005     47.376199999999997
H      48.341120000000004     46.135599999999997     46.441900000000004
H      46.752529999999993     47.977099999999993     49.710999999999999
H      48.007480000000001     48.930499999999995     49.357399999999998
