18

C      48.658034999999998     47.990249999999996     48.305499999999995
C      47.315712000000005     48.003249999999994     47.643400000000007
C      49.940185000000007     48.634650000000008     47.936000000000000
C      47.185756000000005     48.690150000000003     46.329200000000000
C      48.532475000000005     47.657150000000001     49.661600000000000
C      45.879985000000005     47.689749999999997     48.044000000000004
C      48.527005000000003     48.855049999999999     45.842400000000005
C      49.858795000000008     49.042349999999999     46.563400000000001
C      47.351530000000004     46.924950000000003     50.034799999999997
C      46.017185000000019     47.247650000000000     49.397500000000001
H      50.904014999999994     48.796450000000007     48.524800000000006
H      46.287485000000039     48.864350000000002     45.803300000000000
H      49.372265000000006     47.602950000000000     50.408400000000000
H      45.095985000000006     47.282649999999997     47.403900000000000
H      48.553065000000004     49.234949999999998     44.956899999999997
H      50.708285000000004     49.384749999999997     46.128700000000002
H      47.232710000000004     46.689450000000001     51.043100000000003
H      45.117385000000013     46.615250000000003     49.481699999999996
