18

C      48.138799999999989     48.037549999999996     48.917849999999994
C      47.734499999999997     48.293610000000008     47.428349999999995
C      49.503299999999996     48.342720000000007     49.132750000000001
C      48.639600000000009     48.824509999999997     46.390749999999997
C      47.251899999999999     47.267160000000004     49.830849999999998
C      46.378599999999999     47.945590000000003     47.061050000000002
C      50.192799999999998     49.209190000000000     48.193149999999996
C      49.814200000000000     49.487050000000004     46.801249999999996
C      46.111899999999999     46.646590000000003     49.242649999999998
C      45.603299999999997     47.053910000000002     47.956049999999998
H      49.916599999999995     47.919420000000002     50.039349999999999
H      48.371699999999997     48.601400000000005     45.372250000000001
H      47.756799999999998     46.748880000000007     50.627749999999999
H      46.109099999999998     47.754100000000001     46.000149999999998
H      51.141500000000001     49.308990000000001     48.778449999999999
H      50.619599999999998     50.230190000000000     46.391149999999996
H      45.612800000000000     45.769810000000000     49.600049999999996
H      44.858499999999999     46.399300000000004     47.494850000000000
