53

C      47.863900000000001     46.614649999999990     47.589059999999996
C      48.506799999999998     47.945350000000005     47.899039999999999
C      49.865300000000005     47.315849999999998     43.432220000000015
C      48.212199999999996     45.910049999999998     46.367829999999998
C      49.058900000000008     48.619550000000004     46.779429999999998
C      49.325399999999988     46.087850000000003     43.991841000000001
C      48.882300000000001     46.697650000000010     45.277670000000001
C      49.336500000000001     48.015050000000002     45.496119999999998
C      47.283400000000000     46.020550000000000     48.747910000000005
C      47.471299999999999     46.551250000000010     50.169060000000002
C      47.842600000000004     47.798450000000003     50.456360000000004
C      48.396899999999988     48.535550000000001     49.283749999999998
C      46.657499999999999     44.640450000000001     48.522630000000007
C      45.642499999999998     43.972050000000010     49.448930000000004
C      45.442099999999996     44.480249999999998     50.743600000000001
C      46.594999999999999     45.587950000000006     50.991830000000000
C      46.649400000000000     44.205050000000000     47.126840000000001
C      47.470700000000008     44.740750000000006     46.128770000000003
C      47.356800000000007     49.965249999999997     51.514589999999998
C      47.405500000000004     51.332050000000010     51.603589999999997
C      48.181600000000003     50.704750000000004     50.472470000000001
C      48.620000000000005     49.987650000000002     49.286540000000002
C      49.891199999999998     49.896050000000002     47.127830000000003
C      48.999899999999997     50.828350000000000     48.249600000000001
C      48.091899999999995     44.071750000000009     44.795380000000002
C      48.993499999999997     44.613650000000007     43.676620000000007
C      46.668599999999998     45.816450000000003     52.443449999999999
C      47.252099999999999     48.464950000000002     51.654760000000010
C      50.224399999999989     43.869150000000005     43.340220000000009
C      46.662900000000008     52.363150000000005     52.377420000000001
H      50.110900000000001     47.460650000000001     42.458320000000001
H      49.339100000000002     49.305650000000000     43.710520000000002
H      45.035899999999998     43.109549999999999     49.156009999999995
H      44.961100000000002     43.633450000000011     51.400220000000004
H      46.216499999999996     43.258150000000001     46.578540000000004
H      49.767700000000005     50.738050000000001     46.193710000000003
H      51.038899999999998     49.680350000000004     47.275820000000003
H      49.865200000000002     51.434049999999999     48.447270000000003
H      48.033900000000003     51.476050000000001     47.886730000000000
H      48.641199999999998     43.138850000000005     45.156199999999998
H      47.303899999999999     43.373850000000004     44.322991999999999
H      48.465900000000005     44.705750000000009     42.757520000000021
H      46.213999999999999     45.241150000000005     53.180570000000003
H      47.538700000000006     46.222149999999999     52.664190000000005
H      47.599800000000002     47.889850000000010     52.566119999999998
H      46.186900000000009     48.183750000000003     51.923209999999997
H      50.736199999999997     43.893950000000004     44.394790999999998
H      50.144899999999993     42.862650000000002     42.852520000000020
H      50.877099999999999     44.412149999999997     42.740519999999989
H      45.721000000000004     52.651150000000001     51.820930000000004
H      47.477800000000002     53.137349999999998     51.900359999999992
H      46.231099999999998     51.937150000000003     53.541679999999999
N      50.004899999999992     48.563450000000003     44.165841000000000
