15

C      48.239439999999995     48.615649999999988     48.207749999999990
C      48.524469999999994     49.474750000000000     46.825049999999997
C      47.962019999999995     47.170550000000006     47.992249999999999
C      47.011849999999995     47.828450000000004     48.847449999999988
C      47.739129999999996     46.159850000000006     49.156550000000003
C      49.292199999999994     46.767350000000008     47.039749999999998
H      47.639849999999996     49.159350000000003     46.132249999999999
H      48.748219999999996     49.041750000000008     49.116349999999997
H      49.360479999999995     48.914249999999996     46.022250000000000
H      48.554539999999996     50.565150000000003     46.900349999999996
H      46.003850000000000     48.060850000000002     48.430349999999997
H      49.996150000000000     46.707149999999999     47.826249999999995
H      48.528300000000002     45.941950000000006     47.009249999999994
H      49.861809999999991     46.565250000000006     45.957349999999998
O      48.025100000000002     45.434849999999997     50.042650000000002
