18

C      48.625749999999989     48.188949999999991     48.649549999999991
C      47.550750000000008     48.016950000000001     47.608450000000005
C      48.888149999999996     49.576150000000005     49.145050000000012
C      46.886350000000007     48.992849999999997     46.755449999999996
C      49.243750000000006     46.974150000000002     49.258349999999993
C      47.184849999999997     46.623350000000009     47.299350000000004
C      48.143249999999995     50.528650000000006     48.547250000000005
C      47.235650000000007     50.220549999999996     47.417550000000006
C      48.731150000000000     45.671150000000004     49.002650000000003
C      47.606650000000002     45.555150000000005     48.015349999999998
H      49.485450000000000     50.041050000000006     49.942149999999998
H      46.192250000000001     48.775849999999998     45.834550000000007
H      49.807749999999999     47.373350000000009     50.165449999999993
H      46.420749999999998     46.576349999999998     46.512950000000004
H      48.189250000000001     51.705149999999996     48.962950000000006
H      46.411450000000002     50.913850000000004     47.010450000000006
H      49.100049999999996     44.788150000000009     49.644350000000003
H      47.407250000000005     44.294850000000004     47.684250000000006
