18

C      47.562749999999994     47.915899999999993     48.176699999999997
C      49.013650000000005     47.870770000000000     47.580100000000002
C      46.659450000000000     49.053180000000005     47.743600000000008
C      49.388350000000003     48.717310000000005     46.602300000000007
C      46.845150000000004     47.249610000000004     49.175500000000007
C      49.499749999999999     46.571750000000002     48.222799999999999
C      47.189750000000004     50.038720000000005     46.904600000000002
C      48.528650000000006     49.882380000000005     46.374600000000008
C      47.539949999999997     46.046466000000002     49.630200000000009
C      48.897449999999999     45.796240000000004     49.197400000000009
H      45.591050000000003     49.170070000000003     47.867400000000004
H      50.342250000000000     48.632670000000012     46.165600000000005
H      45.718550000000000     47.072110000000002     49.290700000000008
H      50.408949999999997     45.950498000000003     48.265999999999998
H      46.582749999999997     50.912020000000005     46.353900000000003
H      48.861750000000001     50.605960000000003     45.617100000000001
H      47.093150000000001     45.288468999999999     50.382899999999999
H      49.484850000000002     45.087979999999995     49.742300000000007
