18

C      47.846849999999989     47.384054499999998     48.575299999999991
C      48.342350000000003     48.386744500000006     47.457499999999996
C      48.936749999999996     46.734884500000007     49.108699999999999
C      49.668349999999997     48.874774500000008     47.594799999999992
C      46.364550000000001     47.207464500000007     48.982100000000003
C      47.358649999999997     48.971604499999998     46.755299999999991
C      50.491650000000000     46.945814500000004     48.963899999999995
C      50.659749999999995     48.366914500000007     48.482299999999995
C      45.551949999999998     47.988484500000013     48.192300000000003
C      46.038950000000000     48.887314500000016     47.159300000000002
H      48.357750000000003     46.190335500000003     49.893199999999993
H      49.874949999999991     49.809664499999997     47.127200000000002
H      46.160249999999998     46.543594500000005     50.014600000000002
H      47.596649999999997     49.567314500000009     45.985399999999998
H      51.311949999999989     46.364403500000009     49.384999999999991
H      51.618850000000002     48.774524500000005     48.693399999999997
H      44.381149999999998     48.095704499999997     48.394700000000000
H      45.225449999999995     49.539384500000004     46.673999999999992
