18

C      47.711499999999994     48.274499999999996     47.163999999999987
C      48.381900000000002     48.079900000000002     48.529899999999998
C      47.777100000000004     49.657700000000006     46.899400000000000
C      48.836699999999993     49.041000000000011     49.661200000000008
C      47.265200000000000     47.352900000000005     46.197400000000002
C      48.479399999999998     46.528100000000002     48.716000000000008
C      48.204599999999999     50.766800000000003     47.739100000000008
C      48.902000000000001     50.282100000000000     48.843400000000003
C      47.299999999999997     45.941100000000006     46.498000000000005
C      47.804199999999994     45.503300000000003     47.828699999999998
H      47.485399999999998     49.860700000000008     45.855500000000006
H      49.364500000000007     48.737499999999997     50.638300000000001
H      46.752200000000002     47.734200000000001     45.361699999999999
H      49.395000000000010     46.335300000000004     49.357400000000013
H      48.327800000000011     51.562100000000001     47.179699999999997
H      49.413600000000002     50.982799999999997     49.460000000000008
H      46.586399999999998     45.320300000000003     45.921099999999996
H      47.693899999999999     44.437899999999999     48.198200000000000
