6

C      47.371699999999983     48.104849999999992     47.827004999999993
C      48.726599999999991     47.760849999999998     48.045565000000003
H      47.233400000000003     49.175249999999998     47.775505000000003
H      46.451200000000000     47.736750000000001     48.235045000000000
H      48.959099999999992     46.824750000000002     48.528554999999997
H      49.548800000000000     48.165549999999996     47.471445000000003
