18

C      47.927449999999993     47.726449999999986     47.230100000000000
C      47.858650000000004     48.446650000000005     48.573800000000006
C      49.318750000000001     47.553950000000000     46.913200000000003
C      49.113849999999992     48.809650000000005     49.271000000000001
C      46.665849999999999     47.323449999999994     46.618700000000004
C      46.539849999999994     48.552549999999997     49.074300000000008
C      50.584650000000003     47.815049999999999     47.584400000000002
C      50.431350000000002     48.479349999999997     48.946100000000001
C      45.323249999999994     47.607349999999997     47.020800000000008
C      45.325250000000004     48.271050000000002     48.295800000000000
H      49.649549999999998     46.765249999999995     46.024500000000003
H      48.952350000000003     49.234750000000005     50.328199999999995
H      46.524849999999994     46.921250000000001     45.671800000000005
H      46.215650000000004     48.806650000000005     50.122900000000001
H      51.618050000000004     47.848849999999999     47.233699999999999
H      51.127850000000002     48.566249999999997     49.559200000000004
H      44.461549999999995     47.259050000000002     46.504000000000005
H      44.381949999999996     48.376850000000005     48.942900000000009
