18

C      47.667299999999997     48.664149999999992     48.245999999999995
C      48.495600000000003     47.509149999999998     48.439900000000009
C      48.205700000000000     49.980250000000005     47.713800000000006
C      49.833099999999995     47.576550000000005     47.784999999999997
C      46.521799999999992     48.510050000000000     49.221599999999995
C      48.395999999999994     46.080149999999996     48.797199999999989
C      49.172400000000003     49.985949999999995     46.691100000000006
C      49.917899999999996     48.782450000000004     46.871099999999998
C      46.118000000000002     47.008749999999999     49.366900000000001
C      47.079799999999999     45.896850000000001     49.253000000000000
H      47.869499999999995     51.076349999999998     47.746899999999997
H      50.502199999999995     46.742049999999999     47.890600000000006
H      45.996800000000000     49.301250000000003     49.361400000000003
H      49.289300000000004     45.487949999999998     48.836600000000004
H      49.282099999999993     50.839050000000000     45.984899999999996
H      50.766399999999997     48.815350000000002     46.144800000000004
H      45.233600000000003     47.151949999999999     50.015100000000004
H      46.740299999999998     44.923650000000002     49.630200000000002
