18

C      48.890949999999989     48.403349999999989     48.096199999999989
C      47.326249999999995     48.042550000000006     48.385800000000003
C      49.539649999999988     49.378450000000001     48.908299999999997
C      46.530549999999998     48.998149999999995     49.065600000000003
C      49.505749999999999     47.436250000000001     47.187200000000004
C      46.899749999999997     46.870149999999995     47.817099999999996
C      48.563150000000000     50.210050000000010     49.568300000000008
C      47.095349999999996     50.217349999999996     49.619200000000006
C      48.888549999999995     46.297250000000005     46.715600000000009
C      47.581750000000000     45.873950000000008     47.095600000000005
H      50.535350000000001     49.747349999999997     48.977800000000002
H      45.459350000000001     48.957650000000001     49.066200000000009
H      50.540649999999999     47.795249999999996     47.032800000000009
H      45.895350000000001     46.554450000000003     47.930199999999999
H      49.330249999999999     50.905349999999999     49.993000000000009
H      46.422950000000000     51.025049999999993     50.015400000000000
H      49.442650000000000     45.812650000000005     45.984600000000000
H      47.120049999999999     44.974950000000007     46.709600000000009
