18

C      47.987119999999990     48.640449999999987     47.975695499999993
C      48.623890000000003     47.670549999999992     49.004195499999994
C      46.741819999999990     49.080550000000002     48.406295499999999
C      47.899929999999998     47.119050000000001     50.147595499999994
C      48.468869999999995     48.874349999999993     46.642995499999998
C      49.964599999999990     47.046149999999997     48.678795499999993
C      45.888700000000000     48.208050000000000     49.297395499999993
C      46.441279999999992     47.157749999999993     50.122795499999995
C      49.603569999999991     48.141549999999995     46.298795499999997
C      50.239319999999992     47.245649999999998     47.252295499999988
H      45.892650000000003     49.488749999999996     47.865795499999990
H      48.443199999999990     46.307949999999991     50.638290500000004
H      48.289649999999995     49.692050000000009     46.046895499999991
H      50.600420000000000     46.433250000000001     49.346995499999991
H      44.876289999999997     48.531750000000002     49.460595499999997
H      45.757269999999991     46.664050000000003     50.655804500000002
H      49.999649999999988     48.365949999999998     45.344195499999998
H      51.123710000000003     46.675150000000002     46.977695499999996
