18

C      48.491299999999995     48.448875000000001     47.526550000000000
C      47.705100000000002     48.333185000000000     48.830249999999999
C      48.765900000000009     49.680404999999993     46.677250000000008
C      46.660499999999999     49.189205000000001     49.353550000000006
C      49.246100000000006     47.221734999999995     47.305050000000001
C      47.389400000000002     47.093575000000001     49.471550000000001
C      47.403399999999998     50.232704999999996     46.824750000000002
C      46.597500000000004     49.921605000000000     48.078550000000000
C      48.585400000000000     45.985835000000009     47.730950000000000
C      47.766900000000000     45.886375000000001     48.890949999999997
H      49.255900000000004     49.881805000000000     45.730950000000000
H      45.799500000000002     49.060704999999999     49.988650000000000
H      50.300300000000000     47.470325000000003     47.098549999999996
H      46.576999999999998     47.022784999999999     50.269050000000000
H      47.298200000000001     51.004504999999995     45.904550000000008
H      45.699700000000000     50.534904999999995     48.194449999999996
H      48.881599999999999     44.995495000000005     47.473250000000000
H      47.247500000000002     45.077515000000005     49.247850000000007
