56

C      48.714299999999994     47.634549999999990     46.106649999999988
C      47.816799999999994     48.822150000000008     46.254049999999999
C      49.488300000000002     47.368549999999999     51.004849999999998
C      48.101499999999994     47.795050000000003     51.225050000000003
C      49.318999999999996     46.736350000000002     47.215550000000000
C      47.225000000000001     48.951149999999998     47.618249999999996
C      50.242100000000001     46.971249999999998     49.752050000000004
C      47.502400000000002     48.303350000000009     49.937450000000005
C      49.229999999999997     47.214349999999996     48.594850000000001
C      47.931499999999993     48.105050000000006     48.565149999999996
C      49.006200000000000     47.292349999999999     44.769550000000002
C      48.602499999999999     48.222149999999999     43.672249999999998
C      47.809899999999992     49.530749999999998     43.770149999999994
C      47.360999999999997     49.743349999999992     45.168249999999993
C      49.840799999999994     47.095550000000003     52.484349999999999
C      49.189599999999992     46.941249999999997     53.803450000000005
C      47.807399999999994     46.858549999999994     53.450849999999996
C      47.348999999999997     47.741150000000005     52.397950000000002
C      50.023499999999991     46.300950000000000     44.050649999999997
C      50.169999999999995     44.844049999999996     44.286149999999999
C      49.122399999999992     47.820550000000011     42.344249999999995
C      50.455599999999997     45.836249999999993     46.686649999999993
C      51.062400000000004     46.038449999999997     45.132249999999992
C      46.149399999999993     49.937950000000001     47.627249999999997
C      45.399099999999997     50.475650000000002     46.559750000000001
C      46.084499999999998     50.511449999999996     45.263950000000001
C      51.639899999999990     46.653149999999997     50.014549999999993
C      50.343899999999998     46.932450000000003     42.674050000000001
C      46.591199999999994     51.133250000000004     48.354149999999997
C      44.195299999999996     51.409750000000003     46.416050000000006
H      51.935799999999993     44.427049999999994     42.827850000000005
H      46.518899999999995     48.692250000000001     50.257550000000002
H      47.777099999999997     50.272949999999994     43.031950000000002
H      50.966000000000001     47.156549999999996     52.932449999999996
H      49.684199999999997     46.564049999999995     54.615249999999996
H      47.233200000000004     46.523749999999993     54.259149999999998
H      49.422499999999992     44.307150000000007     44.799450000000000
H      48.806999999999995     48.287750000000003     41.384750000000004
H      51.236299999999993     45.533450000000002     47.584650000000003
H      50.051200000000001     44.827550000000002     46.490249999999996
H      52.193300000000001     45.597049999999996     44.914250000000003
H      45.322200000000002     49.265649999999994     48.248950000000001
H      43.300300000000000     50.857349999999997     46.112349999999999
H      45.767000000000003     50.885850000000005     44.288549999999994
H      46.277099999999997     50.194649999999996     52.247049999999994
H      50.616999999999997     46.096350000000001     42.078150000000001
H      51.279999999999994     47.382649999999998     42.754849999999998
H      46.390499999999996     52.268649999999994     47.662749999999996
H      45.952700000000000     51.360550000000003     49.620849999999997
H      47.747199999999999     51.270150000000001     48.616250000000001
H      43.975199999999994     52.098450000000000     47.056949999999993
H      44.210900000000002     51.800250000000005     45.409649999999992
H      50.352899999999998     43.731350000000006     42.288949999999993
N      51.037500000000001     44.011849999999995     43.226750000000003
O      52.699700000000000     46.330050000000000     50.104250000000000
S      46.244300000000003     49.117049999999992     53.101949999999995
