18

C      47.394700000000000     48.030699999999996     48.969464999999992
C      48.168100000000003     48.391699999999993     47.818864999999995
C      48.231400000000001     47.360199999999999     50.112385000000003
C      49.604300000000002     48.267400000000002     47.763534999999997
C      45.967599999999997     48.328200000000002     48.783234999999998
C      47.713600000000007     48.705199999999998     46.521744999999996
C      49.542800000000007     47.211600000000004     50.096294999999998
C      50.271899999999995     47.690400000000004     48.921714999999999
C      45.554899999999996     48.682200000000002     47.463524999999997
C      46.291599999999995     48.982499999999995     46.216515000000001
H      47.601000000000006     46.760200000000005     50.697085000000001
H      50.316899999999997     48.715299999999992     47.008794999999999
H      45.364300000000007     48.350400000000000     49.695035000000004
H      48.288300000000000     48.473400000000005     45.613374999999998
H      50.151699999999998     46.463400000000000     50.571754999999996
H      51.456099999999999     47.338700000000003     49.084724999999992
H      44.543900000000001     48.983400000000010     47.052894999999999
H      45.768800000000006     49.536600000000000     45.302914999999999
