18

C      47.362531499999982     48.046399999999984     47.739149999999981
C      48.535931499999990     48.230599999999995     48.673349999999999
C      46.272631499999989     47.099599999999995     47.958650000000006
C      48.769031499999997     47.311499999999995     49.811149999999998
C      47.358931499999997     48.845299999999995     46.568049999999999
C      49.658231499999985     49.116900000000001     48.253349999999998
C      46.373631499999988     46.249299999999991     49.132849999999991
C      47.632631499999988     46.412199999999999     49.788849999999996
C      48.267231499999994     49.939599999999999     46.348749999999995
C      49.525331499999993     49.862200000000001     47.057049999999990
H      45.538231499999995     46.927800000000005     47.363749999999996
H      49.761931499999989     47.209499999999991     50.479349999999997
H      46.418131499999987     48.823599999999999     45.996849999999995
H      50.461768500000005     49.247399999999999     48.982649999999992
H      45.561631499999990     45.561700000000002     49.523449999999997
H      47.724631499999987     45.768699999999995     50.646650000000008
H      48.086931499999992     50.251800000000003     45.353349999999992
H      50.370764499999993     50.438299999999998     46.838049999999996
