18

C      48.121349999999993     47.702699999999986     47.224119999999992
C      47.848950000000002     48.069599999999994     48.586079999999995
C      48.246150000000000     46.441999999999993     46.638370000000002
C      47.698150000000012     46.954799999999992     49.595079999999996
C      48.153550000000010     48.865899999999996     46.352109999999996
C      48.018450000000001     49.485900000000001     48.946839999999995
C      48.155450000000002     45.332799999999992     47.632829999999998
C      47.929150000000007     45.716899999999995     49.095320000000001
C      48.330950000000001     50.177199999999999     46.781750000000002
C      48.261550000000000     50.669100000000000     48.128659999999996
H      48.361150000000009     46.692099999999996     45.498910000000002
H      47.494450000000001     47.291799999999995     50.712330000000001
H      48.384350000000012     48.451499999999996     45.287669999999999
H      47.846750000000000     49.369399999999999     50.050829999999998
H      47.799950000000010     44.369799999999998     47.330610000000000
H      47.840650000000011     45.045900000000003     49.836730000000003
H      48.505549999999999     51.012000000000000     46.019559999999998
H      48.299450000000007     51.630200000000002     48.540869999999998
