38

C      49.542349999999985     50.535999999999987     49.508849999999995
C      49.377549999999999     51.347100000000005     48.330150000000003
C      45.546949999999995     46.850299999999997     46.963250000000002
C      46.538849999999996     47.586800000000004     47.581550000000000
C      49.132449999999992     49.224799999999995     49.587250000000004
C      47.473249999999993     47.443000000000005     48.658949999999997
C      46.504649999999998     49.064000000000000     47.278750000000002
C      48.113950000000003     48.800499999999992     48.543550000000003
C      47.571950000000001     49.855299999999993     47.645950000000006
C      50.662250000000000     50.741199999999999     50.437649999999998
C      51.834850000000003     51.396700000000003     50.042149999999999
C      51.618950000000012     52.362000000000002     49.104550000000003
C      50.319949999999992     52.425599999999996     48.351950000000002
C      45.532749999999993     45.382899999999999     47.020150000000001
C      46.448849999999993     44.273199999999996     47.554650000000002
C      45.025350000000003     43.965399999999995     47.324649999999998
C      44.072149999999993     47.089099999999995     47.313049999999997
C      47.857450000000000     43.853800000000000     47.520750000000000
C      49.788750000000007     45.681999999999995     46.299050000000001
C      47.656149999999997     46.273000000000003     44.928249999999998
C      48.666849999999997     44.763500000000001     46.721550000000001
C      48.685149999999993     45.184400000000004     45.376750000000001
H      48.980850000000004     44.221899999999998     44.656250000000000
H      47.437650000000005     51.864100000000001     46.961950000000002
H      49.463149999999999     48.616199999999999     50.158750000000005
H      45.655749999999998     49.416300000000000     46.639450000000004
H      50.573849999999993     50.557600000000001     51.607549999999996
H      52.899150000000006     51.213199999999993     50.400250000000007
H      52.630250000000004     52.943300000000001     48.658750000000005
H      50.403449999999992     53.180399999999999     47.629750000000001
H      43.911649999999995     43.788499999999992     47.104950000000002
H      47.929649999999995     46.619599999999998     48.893450000000001
H      48.056749999999994     42.819600000000001     47.850850000000001
H      50.854849999999999     45.418600000000005     45.860050000000001
H      49.648949999999999     46.809900000000006     46.239250000000006
N      48.245450000000005     51.206799999999994     47.378350000000005
O      43.100849999999994     47.083499999999994     47.866950000000003
O      47.057749999999999     47.024700000000003     44.392450000000004
