18

C      48.788199999999996     48.098699999999994     48.060734999999994
C      47.649900000000002     47.653599999999997     47.201754999999999
C      49.416300000000007     49.446800000000003     47.964075000000001
C      46.706299999999999     48.636699999999998     46.650685000000003
C      49.278899999999993     47.342500000000001     49.139405000000004
C      46.998100000000001     46.341999999999999     47.304895000000002
C      48.606200000000001     50.260899999999999     47.154634999999999
C      47.272000000000006     49.848300000000002     46.476905000000002
C      48.484700000000004     46.115299999999998     49.379224999999998
C      47.333100000000002     45.681300000000000     48.584105000000001
H      50.207599999999999     49.643599999999999     48.657885000000000
H      45.792400000000001     48.301699999999990     46.196655000000000
H      49.966099999999997     47.537199999999999     50.015335000000000
H      46.167100000000005     45.907800000000002     46.617375000000003
H      48.547200000000004     51.306199999999997     46.889115000000004
H      46.723799999999997     50.599000000000011     45.709285000000001
H      48.731200000000001     45.635899999999999     50.290714999999999
H      46.757800000000003     44.693800000000003     48.812874999999998
