18

C      47.971849999999989     47.346549999999993     48.640649999999994
C      47.842849999999999     48.448750000000004     47.636749999999999
C      48.445149999999998     47.754649999999998     50.045549999999999
C      48.549149999999997     49.767949999999999     47.892949999999999
C      47.582650000000001     46.046850000000006     48.194949999999999
C      47.302049999999994     48.253150000000005     46.401949999999999
C      49.329350000000005     48.886550000000000     50.170250000000003
C      49.246250000000003     50.017150000000001     49.138550000000002
C      46.571050000000000     46.101749999999996     47.136550000000000
C      46.654750000000007     46.991749999999996     46.131650000000000
H      48.198449999999994     47.308549999999997     50.814550000000004
H      48.431150000000002     50.646550000000005     47.197550000000000
H      47.592950000000002     45.089150000000004     48.731050000000003
H      47.259950000000003     48.882549999999995     45.643250000000002
H      50.119450000000001     49.053049999999999     50.948150000000005
H      49.519850000000005     50.910849999999996     49.182650000000002
H      45.880549999999999     45.337050000000005     46.900749999999995
H      46.547950000000000     46.943650000000005     45.051849999999995
