44

C      47.422971999999987     46.870049999999992     47.496099999999984
C      47.479171999999998     48.126249999999999     48.247899999999994
C      49.233571999999988     49.634349999999998     43.624299999999998
C      49.692071999999989     50.800055000000015     44.629899999999999
C      47.669571999999995     47.054950000000005     46.037599999999991
C      48.080471999999993     49.405349999999999     47.851599999999998
C      48.378171999999999     48.537250000000000     44.068499999999993
C      49.475771999999999     50.483950000000007     46.039299999999990
C      48.131471999999995     48.450050000000005     45.467999999999996
C      48.601771999999990     49.455250000000007     46.468600000000002
C      47.145271999999999     45.674750000000003     48.178899999999992
C      47.127871999999989     44.389049999999997     49.216099999999990
C      45.762271999999989     47.672849999999997     50.035099999999993
C      46.945471999999988     48.522550000000010     49.717599999999997
C      49.983471999999999     49.949150000000003     42.409299999999995
C      50.645671999999998     52.331310000000016     42.913300000000000
C      50.642772000000001     51.212699000000001     41.934400000000004
C      50.162271999999994     51.922390000000007     44.194699999999990
C      46.299571999999991     44.411150000000006     52.082199999999993
C      47.151871999999990     44.911050000000003     53.020699999999998
C      46.768971999999998     43.789349999999999     50.621999999999993
C      47.668371999999998     44.515349999999998     51.671999999999990
C      47.204471999999988     44.256749999999997     47.805299999999995
C      48.051172000000001     46.036950000000004     45.232599999999998
C      49.095871999999993     43.866950000000003     51.674699999999994
C      48.331371999999995     45.127350000000007     54.043199999999992
H      48.155371999999993     50.122250000000008     48.657199999999996
H      48.396172000000000     47.544950000000000     43.547400000000003
H      49.850271999999997     51.327881000000005     46.549199999999992
H      47.515071999999996     48.123050000000006     50.489799999999995
H      49.807172000000001     49.098450000000000     41.836599999999997
H      51.105428000000011     53.252150000000000     42.794599999999996
H      50.258772000000000     52.728720000000010     44.934499999999993
H      46.809671999999999     42.747850000000000     50.895400000000002
H      47.386471999999991     43.570750000000004     47.161600000000000
H      48.939371999999999     42.890950000000004     52.224399999999996
H      49.582571999999992     43.655749999999998     50.513600000000004
H      49.927071999999988     44.234250000000003     52.196899999999992
H      49.276871999999990     44.260550000000009     54.369700000000002
H      48.858271999999992     46.049549999999996     53.354499999999994
H      48.024071999999997     45.434449999999998     55.180399999999999
O      44.894571999999989     47.063950000000006     50.017000000000003
O      51.096384000000000     51.111715000000018     40.819600000000001
O      47.257072000000001     45.369650000000007     44.820599999999992
