18

C      48.150649999999999     48.089799999999997     48.771619999999984
C      47.990250000000003     48.161899999999996     47.262019999999993
C      47.314449999999994     49.222000000000001     49.310519999999997
C      47.236149999999995     49.143499999999996     46.532920000000004
C      48.748049999999992     47.011000000000003     49.622619999999998
C      48.818849999999998     47.131900000000002     46.636020000000002
C      46.591449999999995     50.279900000000005     48.744420000000005
C      46.598650000000006     50.270200000000010     47.124820000000000
C      49.104150000000004     45.789800000000007     49.019819999999996
C      49.191149999999993     46.113800000000005     47.582219999999992
H      47.232950000000002     48.912900000000000     50.406419999999997
H      46.996949999999998     49.272600000000004     45.282979999999995
H      48.659449999999993     46.935400000000001     50.717020000000005
H      49.016949999999994     47.086800000000004     45.622540000000001
H      45.955150000000003     51.012800000000006     49.253420000000006
H      46.101650000000006     51.087899999999998     46.938019999999995
H      49.541749999999993     44.912100000000002     49.235219999999998
H      50.044849999999997     45.015400000000007     47.599919999999997
