133

C      45.128149999999991     47.405399999999993     52.373099999999994
C      41.315249999999992     45.646999999999998     52.803600000000017
C      41.624849999999995     47.068800000000003     52.790600000000012
C      40.520350000000008     48.204200000000000     52.653599999999997
C      40.538649999999990     49.423600000000000     53.387300000000010
C      44.405050000000003     52.568199999999990     55.244900000000015
C      43.565649999999991     53.660199999999996     55.564600000000013
C      42.199950000000001     53.295999999999992     55.770399999999995
C      41.515050000000002     52.121399999999994     55.267600000000016
C      39.495050000000006     51.353900000000003     54.161000000000016
C      45.180049999999994     48.857699999999994     55.445900000000009
C      46.164649999999995     51.181199999999990     55.450000000000017
C      45.782550000000001     52.763399999999990     54.898300000000020
C      41.576849999999993     42.305300000000003     53.084500000000020
C      42.701849999999993     49.298000000000002     51.551500000000019
C      41.082849999999993     49.254100000000001     51.786900000000017
C      39.866849999999999     45.716899999999995     53.164599999999993
C      45.514650000000003     52.936399999999992     53.272700000000000
C      44.210149999999999     48.240399999999994     56.564900000000009
C      39.854149999999990     52.332099999999990     55.124399999999994
C      46.445849999999993     50.749600000000001     41.798800000000014
C      47.271749999999997     50.946899999999999     40.583300000000008
C      46.214749999999995     49.339799999999990     42.325600000000009
C      45.087949999999992     50.080699999999993     41.699300000000008
C      50.010949999999994     50.263700000000000     40.775400000000019
C      48.525049999999993     50.371099999999991     41.014000000000010
C      49.601550000000003     49.328999999999994     43.108000000000018
C      49.383949999999999     49.388099999999994     41.660200000000017
C      47.875550000000004     52.268900000000002     40.000100000000018
C      48.898949999999999     52.085499999999996     39.020200000000017
C      50.226550000000003     51.082699999999996     39.463300000000018
C      46.735249999999994     47.793499999999995     42.256400000000014
C      47.358949999999993     47.609000000000002     40.753000000000014
C      49.113550000000004     47.962800000000001     41.126000000000019
C      49.671949999999995     48.852300000000000     44.417700000000011
C      47.281149999999997     53.652799999999999     40.285400000000010
C      48.519049999999993     53.042999999999992     41.226300000000009
C      50.062749999999994     50.246200000000002     44.081300000000013
C      49.965350000000001     46.314500000000002     48.803000000000011
C      49.575450000000004     45.933399999999999     50.191300000000012
C      45.800249999999991     46.858300000000000     51.094900000000010
C      48.810850000000002     47.022500000000001     48.147800000000018
C      50.610050000000001     45.572099999999999     51.210600000000014
C      46.691149999999993     47.939000000000000     49.092700000000008
C      47.074950000000001     46.186599999999999     51.435900000000018
C      47.602450000000005     46.881799999999998     49.068700000000007
C      48.097949999999997     46.094299999999990     50.311800000000019
C      51.304249999999996     46.288000000000004     48.335300000000018
C      52.556950000000001     45.992199999999997     48.862500000000011
C      52.095050000000001     45.583800000000004     51.461700000000008
C      51.150449999999992     46.756200000000000     46.730500000000006
C      52.393550000000005     46.078699999999998     46.409000000000020
C      54.790949999999995     45.579799999999999     47.543900000000008
C      53.367549999999994     45.777900000000002     47.565700000000007
C      50.005549999999999     47.225200000000001     46.025300000000016
C      50.679949999999991     45.206800000000001     52.621100000000013
C      55.713349999999991     45.781300000000002     48.593700000000013
C      43.701650000000001     51.349499999999992     55.013200000000012
C      42.269449999999992     50.995199999999990     54.927200000000013
C      44.130849999999995     42.711300000000001     52.292900000000017
C      42.817650000000000     43.249799999999993     52.740400000000008
C      44.904449999999997     50.352800000000002     54.955900000000014
C      41.912849999999992     49.694800000000001     54.353400000000008
C      44.842649999999992     44.034700000000001     52.265900000000016
C      42.403250000000000     44.683599999999998     52.668400000000020
C      45.415949999999995     48.615699999999997     53.134600000000020
C      42.965350000000001     47.559500000000000     53.296400000000020
C      44.541349999999994     48.904200000000003     54.193500000000000
C      42.902649999999994     48.938499999999991     53.975099999999998
C      43.878149999999991     45.102200000000003     52.723700000000008
C      45.633250000000004     47.866500000000002     50.098200000000020
C      43.869649999999993     46.523000000000003     52.926100000000005
H      44.856449999999995     48.632700000000000     50.167200000000008
H      44.287549999999996     41.762000000000000     51.879600000000011
H      45.762850000000000     44.006100000000004     51.853000000000009
H      46.349949999999993     49.055399999999992     52.854900000000015
H      39.478250000000003     48.037099999999995     52.200600000000009
H      44.207149999999999     54.551499999999997     55.786000000000001
H      41.472250000000003     54.093400000000003     56.149700000000010
H      46.133349999999993     48.299900000000001     55.065399999999997
H      46.497050000000002     51.120300000000000     56.537300000000002
H      47.047349999999994     51.033699999999996     54.675700000000020
H      46.480549999999994     53.452199999999998     55.411900000000017
H      40.574349999999995     42.753200000000000     52.598700000000008
H      41.471850000000003     41.448500000000003     52.544100000000014
H      42.904449999999997     50.005499999999998     50.875900000000016
H      43.026650000000004     48.283900000000003     51.441300000000012
H      40.642049999999998     49.675199999999997     51.079500000000010
H      39.265050000000002     44.774000000000001     53.082800000000006
H      39.423050000000003     46.849200000000003     53.132800000000003
H      45.208449999999999     54.043799999999990     52.919200000000018
H      46.397750000000002     52.646899999999995     52.702299999999994
H      44.786249999999995     52.098100000000002     52.841700000000017
H      44.651749999999993     48.178199999999990     57.769899999999993
H      43.626949999999994     49.113899999999994     56.651499999999999
H      43.963549999999998     47.253500000000003     56.335800000000006
H      39.544150000000002     53.208599999999990     55.518300000000011
H      43.575850000000003     50.141999999999996     42.945200000000014
H      41.837050000000005     42.078699999999998     54.166100000000014
H      43.633949999999999     49.238100000000003     52.068600000000018
H      48.360349999999997     51.675100000000000     38.230100000000007
H      49.422150000000002     52.973199999999999     38.599300000000014
H      50.698650000000001     50.214100000000002     38.647800000000018
H      50.849149999999995     51.940399999999990     39.556400000000011
H      45.937049999999999     46.954500000000003     42.590800000000016
H      47.538550000000001     47.343200000000003     42.939100000000010
H      47.132750000000001     48.465800000000002     40.105000000000018
H      47.353949999999998     46.719899999999996     40.154500000000013
H      49.439549999999997     48.110100000000003     40.095400000000012
H      49.355549999999994     47.061499999999995     41.806800000000010
H      47.518450000000001     54.342799999999997     39.573600000000013
H      46.188450000000003     53.734900000000003     40.729900000000015
H      49.530549999999991     53.483599999999996     40.799600000000012
H      48.305149999999998     52.385300000000001     42.148500000000013
H      50.401349999999994     50.564000000000000     45.019900000000007
H      53.694850000000002     46.796700000000001     50.526000000000010
H      43.422749999999994     51.672899999999998     42.002700000000019
H      45.327749999999995     46.056400000000004     50.673300000000012
H      46.798249999999996     48.728900000000003     48.270200000000017
H      47.407849999999996     46.251300000000001     52.422900000000013
H      52.466650000000001     45.778399999999991     45.300600000000017
H      55.130749999999992     45.278599999999997     46.529100000000014
H      39.127849999999995     50.612499999999990     52.269300000000015
H      55.263149999999996     46.104699999999994     49.671400000000020
H      56.872150000000005     45.684600000000003     48.633000000000010
H      48.020949999999999     48.124799999999993     45.980600000000010
N      39.204650000000001     50.381900000000002     53.342200000000005
N      43.662449999999993     50.472799999999999     41.972800000000007
N      52.898749999999993     46.442599999999999     50.197800000000015
N      48.750249999999994     47.456699999999998     46.794300000000007
O      50.455249999999992     45.423900000000003     53.870600000000010
O      52.796449999999993     44.587600000000002     51.639700000000019
O      50.118449999999996     47.524599999999992     44.746500000000012
