61

C      46.720799999999997     46.098399999999998     49.356149999999992
C      46.594999999999999     45.404800000000002     47.883250000000004
C      49.093599999999995     50.125099999999996     47.379050000000007
C      48.923199999999994     49.685600000000001     46.029550000000000
C      47.452999999999989     47.255599999999994     49.547449999999998
C      47.038499999999999     46.239799999999995     46.876050000000006
C      48.364699999999999     49.370600000000003     48.464050000000000
C      48.261399999999995     48.418900000000001     45.823350000000005
C      47.853799999999993     48.049100000000003     48.327749999999995
C      47.838399999999993     47.606299999999997     46.991150000000005
C      46.250100000000003     45.199599999999997     50.431950000000001
C      45.579400000000007     43.871800000000000     50.271950000000004
C      45.556399999999996     43.496100000000006     48.796549999999996
C      45.887000000000000     44.155499999999996     47.513850000000005
C      49.648600000000002     51.507500000000000     47.578450000000004
C      50.355900000000005     52.416199999999996     46.684349999999995
C      50.094600000000000     51.822099999999999     45.313950000000006
C      49.613699999999994     50.485999999999997     45.076650000000001
C      46.838499999999996     45.620899999999999     51.789050000000003
C      46.905100000000004     44.655099999999997     52.836050000000000
C      45.441800000000001     43.278399999999998     51.637349999999998
C      47.487099999999998     46.989500000000000     52.029049999999998
C      47.792699999999996     47.724100000000000     50.857349999999997
C      48.766699999999986     48.833700000000000     51.092849999999999
C      49.088400000000007     49.635600000000004     49.822450000000003
C      47.262299999999996     45.499900000000004     45.660550000000001
C      46.984899999999996     44.162100000000002     45.237949999999998
C      45.554500000000004     43.592499999999994     46.073850000000007
C      50.662999999999997     52.708900000000007     44.300849999999997
C      46.729699999999994     43.951400000000000     43.841949999999997
C      48.064299999999989     43.179200000000002     45.709550000000007
C      50.677599999999998     49.369000000000007     49.826549999999997
C      45.601100000000002     44.699800000000003     42.862150000000000
H      46.052400000000006     42.867600000000003     53.809049999999999
H      47.811299999999989     48.164400000000008     44.822350000000000
H      45.202299999999994     42.550599999999996     48.606949999999998
H      49.578100000000006     51.707500000000003     48.680450000000008
H      50.754499999999993     53.575899999999997     46.869450000000001
H      49.341899999999995     49.788400000000003     44.201450000000008
H      47.543199999999999     45.270500000000006     53.430050000000008
H      44.769400000000005     42.424100000000003     51.524249999999995
H      47.796199999999999     47.212100000000000     53.023449999999997
H      49.627899999999997     48.298499999999997     51.550349999999995
H      48.418699999999987     49.661899999999996     51.961849999999998
H      49.016099999999994     50.513500000000001     50.360650000000007
H      48.068600000000004     45.963299999999997     45.066450000000003
H      45.376099999999994     42.426800000000007     46.297250000000005
H      47.685000000000002     43.810099999999998     43.270250000000004
H      44.802000000000007     44.188399999999994     45.637850000000000
H      46.181700000000006     43.024099999999997     43.580250000000007
H      44.656400000000005     45.030700000000003     43.412450000000007
H      47.952499999999986     42.521499999999996     46.649749999999997
H      48.164599999999993     42.488400000000006     44.784050000000008
H      49.166199999999989     43.394799999999996     45.237750000000005
H      51.343599999999995     50.011400000000002     50.431150000000002
H      50.873999999999995     48.207299999999996     50.319850000000002
H      51.021600000000007     49.472000000000001     48.816850000000002
H      45.067200000000000     44.232800000000005     42.190950000000001
H      46.158100000000005     45.374600000000008     42.291849999999997
N      46.153899999999993     43.505900000000004     52.857050000000001
O      51.024599999999992     53.215399999999995     43.332949999999997
