5

C      47.763399999999990     47.914449999999988     48.192599999999999
H      47.169300000000000     47.158249999999995     48.720300000000002
H      48.830700000000000     47.635449999999992     48.798600000000000
H      47.391700000000000     48.841750000000005     48.489300000000007
H      47.959799999999994     47.932150000000007     47.201400000000000
