18

C      47.758850000000002     47.524099999999990     47.282499999999992
C      48.640650000000008     48.261599999999987     48.133600000000001
C      47.249949999999998     48.444999999999993     46.090999999999994
C      48.975650000000002     49.686300000000003     47.686999999999998
C      47.531750000000002     46.092500000000001     47.263800000000003
C      49.393450000000001     47.613199999999992     49.297299999999993
C      47.103450000000009     49.798899999999989     46.027900000000002
C      48.169150000000002     50.554999999999993     46.819100000000006
C      48.384350000000012     45.578099999999992     48.348799999999997
C      49.261850000000010     46.298199999999994     49.351799999999997
H      46.623150000000010     47.748300000000000     45.559799999999996
H      49.792749999999998     50.113000000000000     48.157399999999996
H      47.159750000000003     45.620400000000004     46.395799999999994
H      49.849750000000000     48.189499999999995     50.062299999999993
H      46.150250000000000     50.151899999999983     45.677999999999997
H      48.420450000000002     51.487899999999996     46.548400000000001
H      48.232550000000003     44.512100000000004     48.490600000000001
H      49.606150000000000     46.073999999999998     50.440200000000004
