18

C      47.535849999999982     48.560714999999988     48.235049999999994
C      48.349150000000002     47.300035000000008     47.933949999999996
C      46.853649999999995     49.192405000000008     47.149450000000002
C      48.836049999999993     47.115534999999994     46.619050000000001
C      47.380049999999990     49.049454999999995     49.602149999999995
C      48.874049999999990     46.702025000000006     49.139250000000004
C      47.134049999999995     48.590734999999995     45.870049999999992
C      48.136949999999992     47.662615000000002     45.449449999999999
C      47.606649999999995     48.266795000000002     50.613849999999999
C      48.415849999999999     46.999395000000007     50.363950000000003
H      46.297249999999998     50.201965000000001     47.105750000000000
H      49.446449999999992     46.108895000000004     46.103049999999996
H      46.678350000000002     49.988445000000013     49.852450000000005
H      49.702750000000002     45.798034999999999     49.146450000000002
H      46.695549999999990     48.849435000000000     44.892150000000001
H      48.384749999999990     47.471244999999996     44.391450000000006
H      47.244349999999990     48.391824999999997     51.608549999999994
H      48.729649999999999     46.152465000000007     50.975650000000002
