18

C      48.567549999999983     47.669249999999991     47.567499999999995
C      47.388449999999992     48.096950000000007     48.340500000000013
C      49.719049999999996     47.949849999999998     48.419500000000006
C      47.432749999999999     48.696950000000001     49.751100000000001
C      48.565349999999995     46.964449999999999     46.196600000000004
C      46.121749999999992     47.747950000000003     47.720900000000000
C      49.869149999999991     48.567149999999998     49.691100000000006
C      48.679850000000002     48.887349999999998     50.459899999999998
C      47.365649999999988     47.011750000000006     45.647000000000006
C      46.109849999999994     47.357550000000003     46.385300000000001
H      50.626050000000006     47.553950000000000     47.809500000000000
H      46.561650000000000     48.597350000000006     50.177399999999999
H      49.505150000000000     46.624549999999999     45.477500000000006
H      45.223649999999992     47.851550000000003     48.257299999999994
H      50.776350000000008     48.568150000000003     50.238600000000012
H      48.907049999999998     49.375450000000001     51.423099999999998
H      47.264449999999997     46.655550000000005     44.576900000000002
H      45.405249999999995     47.214849999999998     45.569700000000005
