18

C      47.233299999999986     48.125700000000002     48.438149999999993
C      48.467300000000002     48.080600000000004     47.615150000000000
C      46.686000000000000     46.628000000000000     48.467549999999996
C      49.079799999999999     46.845000000000013     47.050649999999997
C      46.754100000000001     49.202300000000008     49.008050000000004
C      49.254917700000000     49.311700000000002     47.385249999999999
C      47.535900000000005     45.422499999999999     48.153150000000004
C      48.729800000000004     45.512500000000003     47.413850000000004
C      47.322399999999995     50.497100000000003     48.652650000000001
C      48.516500000000001     50.460800000000006     47.802349999999997
H      45.741300000000003     46.524900000000002     48.936950000000003
H      50.025316000000011     46.670400000000001     46.528950000000002
H      45.697799999999994     49.270900000000012     49.471049999999998
H      50.302200000000006     49.648400000000009     46.850749999999998
H      46.965799999999994     44.669000000000011     48.566350000000007
H      49.176499999999997     44.530400000000000     46.829349999999998
H      47.125899999999994     51.469600000000000     48.798750000000005
H      49.047199999999997     51.274400000000000     47.501950000000001
