18

C      47.888049999999993     48.597149999999999     47.292199999999994
C      47.711150000000004     47.767849999999996     48.434399999999997
C      48.599150000000009     48.096949999999993     46.140799999999999
C      48.414650000000009     46.477050000000006     48.329400000000007
C      47.138550000000009     49.766750000000002     47.346000000000004
C      47.136150000000001     48.477350000000001     49.716999999999999
C      49.230450000000005     46.773550000000000     46.051900000000003
C      49.001050000000006     45.799449999999993     47.138000000000005
C      46.562350000000009     50.419749999999993     48.530600000000007
C      46.865750000000006     49.888149999999996     49.847300000000004
H      48.562950000000001     48.575850000000003     45.190799999999996
H      48.440849999999998     45.707250000000002     49.070800000000006
H      47.203550000000007     50.319850000000002     46.295500000000004
H      47.282449999999997     47.907849999999996     50.584800000000016
H      49.936750000000004     46.383349999999993     45.279300000000006
H      49.280550000000005     44.611350000000002     46.900800000000004
H      46.063249999999996     51.388649999999998     48.254599999999996
H      46.818250000000006     50.378150000000005     50.809200000000004
