18

C      47.981399999999994     48.199059999999996     47.434682799999990
C      48.295499999999997     47.363700000000001     48.631732799999995
C      47.417700000000004     49.557000000000002     47.619542800000005
C      48.377299999999998     47.985460000000003     50.007112800000002
C      47.831800000000001     47.629710000000003     46.022122800000005
C      48.619899999999994     45.981720000000003     48.410042800000014
C      47.734000000000002     50.236760000000004     48.812062800000007
C      48.360300000000002     49.414180000000002     49.929632800000007
C      48.657199999999996     46.383609999999997     45.981857800000000
C      48.853500000000004     45.504959999999997     47.069622800000005
H      46.774300000000004     50.008409999999998     46.813582800000006
H      48.567699999999995     47.241680000000002     50.916012800000004
H      46.778200000000005     47.781280000000002     45.940305800000004
H      48.569499999999998     45.313159999999996     49.406132799999995
H      47.495899999999999     51.384410000000003     49.084032800000003
H      48.715600000000002     49.943259999999995     50.653772799999999
H      49.020400000000002     45.835830000000001     45.083987199999996
H      49.225699999999996     44.615589999999997     46.789402800000005
