18

C      47.991149999999998     47.864699999999999     48.807449999999989
C      47.668750000000003     48.088100000000004     47.353249999999996
C      48.556850000000011     49.091600000000007     49.464350000000003
C      47.754650000000012     49.508000000000003     46.838249999999995
C      47.723750000000010     46.538600000000010     49.396949999999997
C      47.681950000000001     46.846300000000006     46.589350000000003
C      48.788250000000005     50.495100000000001     49.151350000000001
C      48.109850000000009     50.501500000000000     47.735449999999993
C      46.990550000000013     45.556300000000000     48.685150000000000
C      47.239150000000009     45.660900000000005     47.238750000000003
H      48.642950000000013     48.537700000000008     50.404549999999993
H      47.492350000000002     49.804000000000009     45.837349999999994
H      47.820550000000011     46.694899999999997     50.458250000000000
H      47.696350000000010     46.591500000000003     45.541750000000000
H      49.467449999999999     51.237500000000004     49.444250000000004
H      48.114050000000006     51.514000000000003     47.069650000000003
H      46.532550000000001     44.485999999999997     49.052349999999997
H      47.042650000000009     44.732700000000001     46.668950000000002
