70

C      52.697599999999994     44.283854999999996     49.716399999999986
C      43.219700000000003     46.574555000000004     49.787299999999988
C      43.770499999999998     47.462254999999999     48.758199999999995
C      52.681399999999996     51.531685000000010     45.526359999999997
C      44.252400000000009     46.104255000000009     50.749699999999997
C      53.703100000000006     51.465535000000003     46.473669999999998
C      51.579200000000000     50.577645000000004     45.763009999999994
C      45.164100000000005     48.149455000000003     48.721599999999995
C      54.884200000000007     50.129125000000002     48.303829999999991
C      53.434300000000007     49.358800000000016     49.923799999999993
C      48.820099999999996     47.083955000000003     49.951399999999992
C      49.667600000000007     49.675983000000016     47.144209999999994
C      47.626400000000004     48.390455000000003     48.059019999999997
C      52.361400000000003     48.186355000000006     50.203299999999999
C      53.691400000000016     50.367595000000009     47.516489999999990
C      45.718800000000002     46.260355000000004     50.709899999999990
C      51.106300000000005     50.073585000000008     47.052189999999996
C      49.698200000000000     47.902754999999999     49.115899999999996
C      49.100400000000008     48.651255000000006     47.984979999999993
C      46.027100000000004     47.383454999999998     49.723399999999998
C      52.275100000000009     49.104841000000008     49.099699999999999
C      47.387100000000004     47.603555000000000     49.263099999999994
C      51.087400000000002     48.364554999999996     49.560099999999991
C      52.273700000000005     50.040505000000010     47.936459999999997
C      45.287000000000006     48.851354999999998     47.471229999999991
C      46.601200000000006     49.165095000000008     47.229909999999997
C      47.174000000000007     50.056615000000008     46.349419999999995
C      48.619000000000000     50.339595000000017     46.326639999999998
C      49.007500000000007     51.164675000000010     45.217789999999994
C      50.369399999999999     51.132345000000001     44.944269999999996
C      41.901899999999998     46.053555000000003     49.460399999999993
C      41.146400000000000     46.499955000000000     48.329989999999995
C      41.633300000000006     47.521855000000002     47.351099999999995
C      42.873300000000000     48.125254999999996     47.600329999999992
C      43.061700000000002     49.171857000000017     46.751509999999996
C      44.420100000000005     49.674693000000005     46.594359999999995
C      54.824799999999996     49.835024000000004     49.677599999999998
C      55.371100000000013     50.843105000000008     50.778199999999998
C      43.737700000000004     45.200055000000006     51.871799999999993
C      48.995000000000005     46.300454999999999     51.161099999999990
C      54.372799999999998     45.960755000000006     50.591999999999999
C      52.855000000000004     46.659855000000007     50.782299999999992
C      53.145500000000013     45.644154999999998     49.680699999999995
H      52.724800000000002     43.888154999999998     50.702500000000001
H      51.700000000000003     44.271855000000002     49.264699999999991
H      53.245400000000004     43.716854999999995     48.986899999999991
H      56.099000000000004     50.681345000000007     51.579099999999997
H      52.788899999999998     51.942215000000012     44.495439999999995
H      54.490300000000005     52.283145000000005     46.443559999999991
H      55.814300000000003     50.374995000000013     47.935999999999993
H      46.376300000000001     45.545855000000003     51.166899999999998
H      46.766100000000009     51.101725000000009     45.963459999999998
H      50.250299999999996     51.817525000000018     44.056899999999992
H      41.340000000000003     45.294854999999998     50.021099999999990
H      39.900999999999996     46.214754999999997     48.382449999999992
H      41.166399999999996     48.172754999999995     46.639539999999997
H      42.536500000000004     49.449168000000000     45.756039999999992
H      44.702799999999996     50.744805000000014     46.200049999999997
H      55.387000000000000     48.980755000000002     49.901299999999992
H      54.276800000000009     51.093305000000001     50.797699999999992
H      47.215600000000009     50.768125000000012     43.418829999999993
H      48.138400000000004     46.115155000000001     51.785299999999992
H      49.992000000000004     46.172155000000004     51.489599999999996
H      55.173800000000000     46.636454999999998     51.072499999999991
H      54.458200000000005     45.015254999999996     50.964600000000004
H      52.225099999999998     46.125254999999996     51.542299999999997
H      56.081600000000009     51.424125000000011     50.204699999999988
H      53.603900000000010     45.963755000000006     48.843499999999992
O      43.163399999999996     44.664155000000008     52.698300000000003
S      48.080600000000004     51.757625000000004     43.301699999999997
