18

C      47.383599999999994     48.070344999999989     47.681299999999986
C      48.645099999999999     47.442295000000001     48.113999999999990
C      47.262900000000002     49.145195000000001     46.761099999999999
C      49.868799999999993     47.912665000000004     47.653399999999991
C      46.157299999999992     47.313874999999996     48.087899999999991
C      48.592699999999994     46.493944999999997     49.143000000000001
C      48.504999999999995     49.698785000000001     46.316299999999998
C      49.743299999999991     48.999324999999999     46.801199999999994
C      46.021699999999996     46.320364999999995     49.138300000000001
C      47.314200000000000     45.876265000000004     49.593599999999995
H      46.433199999999999     49.591935000000007     46.207699999999988
H      50.952799999999996     47.656565000000001     47.971899999999991
H      45.107500000000002     47.463825000000000     47.645199999999988
H      49.569099999999992     46.081805000000003     49.552300000000002
H      48.410499999999999     50.431565000000006     45.350200000000001
H      50.749399999999994     49.164545000000004     46.305799999999991
H      45.047200000000004     46.223314999999999     49.653599999999997
H      47.474699999999999     45.568434999999994     50.649799999999999
