22

C      48.506699999999995     46.048999999999992     45.887000000000000
C      47.860799999999998     47.415900000000001     48.811800000000005
C      48.180800000000005     48.834400000000009     48.198500000000010
C      48.668300000000002     46.367100000000001     48.352100000000007
C      49.256799999999998     49.027000000000008     47.235799999999998
C      46.931600000000003     47.590800000000002     49.983100000000007
C      47.142700000000005     49.782499999999992     48.599299999999999
C      49.530900000000003     46.560700000000004     47.116000000000000
C      50.019000000000005     47.822799999999994     46.824400000000011
C      46.120000000000005     48.472100000000005     50.471999999999994
C      46.386800000000008     49.740299999999998     49.829100000000011
H      48.167299999999997     45.074100000000001     45.912700000000001
H      47.587500000000006     46.840499999999999     46.387000000000000
H      48.467799999999997     46.335999999999999     44.792200000000008
H      48.680000000000007     45.257800000000003     48.706600000000009
H      49.403199999999998     49.993199999999995     46.885300000000001
H      46.843400000000003     46.543100000000003     50.356200000000001
H      46.832800000000006     50.925899999999999     48.188699999999997
H      50.417899999999989     45.629800000000003     46.835700000000003
H      50.744199999999992     48.030999999999999     46.203199999999995
H      45.255800000000008     48.273599999999995     51.207799999999992
H      45.798900000000003     50.623300000000008     49.982500000000002
