18

C      48.169899999999991     48.139399999999995     48.883499999999998
C      47.804299999999998     47.795099999999998     47.473600000000005
C      48.453600000000009     46.785499999999999     49.539999999999992
C      47.350999999999999     46.543599999999998     46.823400000000007
C      48.250399999999999     49.490699999999997     49.478299999999990
C      47.803500000000000     48.888900000000000     46.535399999999996
C      48.107700000000008     45.609800000000000     49.080799999999996
C      47.460300000000004     45.473799999999997     47.725099999999998
C      48.261099999999999     50.482999999999997     48.411299999999997
C      47.921400000000006     50.204799999999999     47.046199999999999
H      49.127200000000002     46.666599999999995     50.503900000000002
H      46.872799999999998     46.594999999999999     45.763599999999997
H      48.572299999999998     49.588600000000000     50.588300000000004
H      47.627499999999998     48.750499999999995     45.411699999999996
H      48.169300000000007     44.562800000000003     49.603800000000007
H      47.081299999999999     44.633600000000001     47.092200000000005
H      48.522199999999998     51.437199999999997     48.850200000000001
H      47.936099999999996     51.117399999999996     46.499600000000001
