18

C      47.469499999999982     47.385699999999986     47.728699999999989
C      47.911999999999999     48.610299999999988     47.470500000000001
C      47.565300000000001     46.122999999999998     46.938699999999997
C      48.604399999999991     48.683900000000001     46.238599999999998
C      47.119199999999999     47.321799999999989     49.185699999999997
C      47.609400000000001     49.883400000000002     48.148600000000009
C      48.535799999999988     46.073499999999989     45.871699999999997
C      49.126599999999989     47.488499999999995     45.712299999999999
C      46.591000000000001     48.439799999999998     49.906900000000000
C      47.112800000000000     49.651499999999992     49.451099999999990
H      47.012999999999998     45.289699999999989     47.399499999999996
H      48.855999999999987     49.685899999999997     45.685699999999997
H      46.976799999999990     46.516299999999994     49.840499999999999
H      47.747299999999989     50.862000000000002     47.910800000000002
H      48.658499999999997     45.137999999999998     45.261899999999997
H      49.732199999999999     47.921899999999994     44.854199999999999
H      46.267800000000001     48.295799999999993     51.145800000000001
H      47.018999999999998     50.497699999999988     50.002299999999998
