8

C      48.001649999999984     48.406599999999997     48.613099999999989
C      47.961449999999992     47.262799999999999     47.522400000000005
H      47.389649999999996     48.222700000000003     49.548999999999999
H      48.757749999999994     46.719300000000004     47.364500000000000
H      49.101149999999997     48.395300000000006     48.848599999999998
H      47.502350000000000     49.280699999999996     48.123500000000000
H      47.398249999999997     47.463899999999995     46.451000000000001
H      46.898850000000003     46.898200000000003     47.480600000000003
