18

C      47.603650000000002     47.862849999999995     47.434849999999990
C      48.834649999999996     48.350349999999992     48.210650000000001
C      47.185649999999995     46.482950000000002     47.169449999999998
C      49.457149999999999     47.180750000000003     48.817049999999995
C      46.577050000000000     48.979149999999990     47.243749999999999
C      49.160550000000001     49.763949999999994     48.353049999999996
C      47.957949999999997     45.360849999999999     47.740549999999999
C      48.879450000000006     45.885949999999994     48.707650000000001
C      46.833650000000006     50.360949999999988     47.418750000000003
C      48.125450000000001     50.699249999999992     48.152450000000002
H      46.381050000000002     46.296049999999994     46.511150000000001
H      50.318749999999994     47.414950000000005     49.488849999999999
H      45.681250000000006     48.691749999999999     47.121549999999999
H      50.218549999999993     50.087649999999996     48.623549999999994
H      47.672750000000008     44.260750000000002     47.683949999999996
H      49.426049999999989     45.077950000000001     49.292850000000001
H      46.041350000000008     51.079549999999998     47.506349999999998
H      48.456249999999997     51.739249999999998     48.443249999999992
