50

C      48.176539999999996     47.721094499999978     49.287049999999994
C      49.000039999999998     46.886194499999995     48.401649999999997
C      45.631950000000003     46.266994499999988     44.278149999999997
C      46.617519999999999     47.883594499999994     49.168450000000000
C      47.234940000000002     46.785794499999987     46.435249999999996
C      45.712490000000003     47.325294499999991     48.156349999999996
C      45.663440000000001     45.085694499999995     46.508049999999997
C      45.720400000000005     46.550094499999993     46.882550000000002
C      46.169890000000002     46.147894499999985     45.633649999999996
C      49.100340000000003     48.532594499999995     50.058949999999989
C      50.591940000000008     48.387494499999995     50.276550000000000
C      51.240040000000000     47.656394499999998     49.243350000000000
C      50.403040000000004     46.823494499999988     48.436949999999996
C      48.447540000000004     49.488294499999988     51.047350000000002
C      49.067440000000005     49.960894499999988     52.342149999999997
C      50.392340000000004     49.683394499999984     52.462150000000001
C      51.275840000000002     49.080894499999992     51.498950000000001
C      46.996639999999999     49.816094499999984     51.013750000000002
C      46.202060000000003     49.002694499999997     50.095250000000000
C      44.643030000000003     48.753894499999994     49.933549999999997
C      44.862110000000001     48.627394499999987     48.273550000000000
C      48.421340000000001     45.878894499999994     47.441649999999996
C      49.572340000000011     45.160894499999991     46.522050000000000
C      50.834040000000002     45.680794499999998     47.422550000000001
C      49.860439999999997     45.153094499999987     45.214449999999999
C      44.542420000000000     44.812794499999988     44.084350000000001
C      46.410620000000002     51.045994499999985     51.911750000000005
H      44.973800000000004     46.901294499999985     44.107849999999999
H      46.084650000000003     44.186094499999989     46.415050000000001
H      52.253640000000004     47.560794499999993     49.185549999999999
H      48.471740000000011     50.467494499999994     53.115449999999989
H      51.059440000000009     49.941594499999987     53.190350000000002
H      43.659240000000004     49.319294499999991     50.090550000000000
H      44.632230000000000     47.883494499999991     50.452449999999999
H      43.842610000000001     48.418194499999991     47.677749999999996
H      45.380600000000001     49.637694499999988     47.818550000000002
H      47.548439999999999     47.845294499999987     46.044550000000001
H      47.926340000000003     45.068894499999992     48.057350000000000
H      49.462239999999994     44.030994499999984     46.809750000000001
H      51.359740000000002     44.716994499999991     47.888649999999998
H      51.790940000000006     46.173394499999993     46.940350000000002
H      45.137630000000001     44.030794499999992     44.678849999999997
H      44.335310000000000     44.619894499999994     42.809649999999998
H      43.582160000000002     44.918394499999984     44.495150000000002
H      46.221460000000000     50.733794499999995     53.022449999999999
H      47.015940000000001     51.969205500000008     51.866049999999994
H      45.562420000000003     51.223094499999995     51.418749999999996
H      46.466990000000003     46.266094499999987     43.574449999999999
O      50.231440000000006     45.054194499999987     44.161049999999996
O      52.417839999999998     48.759494499999995     51.763750000000002
