5

C      47.722949999999997     47.992849999999983     48.118024999999996
H      47.525750000000009     47.822249999999997     46.975965000000002
H      47.610550000000011     48.785150000000002     49.024034999999998
H      48.779249999999998     47.796650000000000     48.260905000000001
H      47.220750000000002     47.214849999999998     48.721234999999993
