6

C      48.480999999999987     47.750699999999995     48.417899999999989
C      47.580700000000000     48.296699999999994     47.677699999999994
H      48.361599999999996     47.440100000000001     49.461199999999998
H      49.337400000000002     47.180900000000001     47.939000000000000
H      47.844299999999997     48.469700000000010     46.538800000000002
H      46.662599999999998     48.819099999999999     47.883499999999991
