18

C      48.191149999999993     47.285649999999990     48.007749999999994
C      48.304050000000004     48.683850000000007     48.507950000000001
C      47.298550000000006     46.253850000000000     48.536250000000003
C      47.256150000000005     49.064750000000004     49.551550000000006
C      48.912649999999999     47.120050000000006     46.769450000000006
C      49.049149999999997     49.725250000000003     47.928449999999998
C      46.397350000000003     46.761150000000001     49.588549999999998
C      46.326049999999995     48.199250000000006     50.068250000000006
C      49.725149999999999     48.145150000000001     46.152150000000006
C      50.071050000000000     49.371549999999999     46.896150000000006
H      47.145849999999996     45.296449999999993     47.967150000000004
H      47.018450000000001     50.008849999999995     49.911850000000001
H      48.456750000000000     46.363150000000005     46.047550000000001
H      48.782550000000001     50.703550000000007     48.364949999999993
H      45.684349999999995     46.034449999999993     50.026150000000001
H      45.526650000000004     48.480249999999998     50.778350000000003
H      50.378150000000005     48.116849999999999     45.221649999999997
H      50.473349999999996     50.361950000000007     46.733550000000001
