18

C      48.085650000000001     47.669399999999989     47.468984999999996
C      47.433550000000004     48.537099999999995     48.558594999999997
C      48.264950000000006     46.249299999999998     47.810254999999998
C      46.944150000000000     48.033600000000000     49.847165000000004
C      48.889050000000005     48.068099999999994     46.361085000000003
C      47.851450000000007     49.907999999999987     48.307585000000003
C      47.764950000000006     45.677899999999994     49.007745000000000
C      47.070050000000002     46.584599999999995     50.076165000000003
C      48.800450000000005     49.488299999999995     45.894404999999999
C      48.410050000000005     50.330599999999990     47.021014999999998
H      48.710650000000008     45.443899999999999     47.200395000000000
H      46.296150000000004     48.651600000000002     50.546064999999999
H      49.703849999999996     47.477599999999995     46.083285000000004
H      47.593650000000004     50.852599999999995     49.023805000000003
H      47.672450000000005     44.591200000000001     49.047525000000007
H      46.771250000000002     46.039899999999996     50.994565000000001
H      49.216450000000002     49.866899999999987     45.005434999999999
H      48.351549999999996     51.408799999999999     46.701495000000001
