18

C      48.694749999999992     47.985800000000005     47.688149999999993
C      47.353549999999998     48.021500000000003     48.328450000000004
C      48.688150000000000     48.725400000000008     46.411950000000004
C      46.212550000000000     48.834000000000003     47.825549999999993
C      49.691649999999996     47.036400000000000     48.030950000000004
C      47.092950000000002     47.005800000000008     49.447249999999997
C      47.719549999999998     49.621900000000011     45.975049999999996
C      46.483649999999997     49.799400000000006     46.851150000000004
C      49.372650000000007     46.197200000000009     49.134349999999998
C      48.110450000000000     46.231900000000010     49.773749999999993
H      49.648750000000007     48.861400000000003     45.993049999999997
H      45.291150000000002     49.036600000000007     48.259450000000001
H      50.708849999999998     46.989600000000010     47.448149999999998
H      46.199249999999999     47.088600000000000     49.927350000000004
H      48.238950000000003     50.424600000000012     45.394350000000003
H      45.657650000000004     50.722999999999999     46.482849999999999
H      50.040450000000007     45.277000000000001     49.627549999999999
H      47.972349999999999     45.498600000000010     50.605649999999997
