18

C      48.387849999999993     47.421199999999999     47.982799999999997
C      47.000249999999994     47.990900000000003     48.336199999999998
C      48.711150000000004     47.224100000000000     46.564400000000006
C      46.331649999999996     48.189799999999998     47.062500000000007
C      49.324150000000003     47.348599999999998     49.113700000000001
C      46.689449999999994     48.383199999999995     49.657300000000014
C      47.989750000000001     47.548499999999997     45.378200000000007
C      46.513949999999994     47.773100000000007     45.638600000000004
C      48.934449999999998     47.535999999999994     50.507700000000007
C      47.458349999999996     47.746100000000006     50.675600000000010
H      49.607550000000003     47.069700000000005     46.109400000000008
H      45.432050000000004     48.865800000000000     46.914200000000001
H      50.567949999999996     47.320799999999998     48.793399999999998
H      45.664050000000003     48.930299999999995     49.877100000000006
H      48.443349999999995     47.341699999999996     44.400500000000001
H      45.703749999999999     47.804499999999997     45.063000000000002
H      49.305049999999994     47.391399999999997     51.472900000000003
H      46.950550000000007     47.267100000000006     51.599499999999999
