18

C      47.808299999999988     47.838999999999984     48.784250000000000
C      47.934000000000005     47.878700000000009     47.225549999999998
C      48.429499999999997     46.902799999999999     49.709049999999991
C      48.749699999999997     46.817499999999995     46.852850000000004
C      46.972100000000005     49.037899999999993     49.235349999999997
C      47.507700000000007     48.837699999999998     46.257350000000002
C      49.327599999999997     46.012699999999995     49.220450000000000
C      49.494300000000003     46.078000000000003     47.760050000000007
C      46.455900000000007     49.999499999999998     48.334450000000004
C      46.724800000000009     49.797499999999999     46.877949999999998
H      48.335600000000007     46.988999999999990     50.795249999999996
H      49.037500000000001     46.751899999999992     45.722350000000006
H      47.048200000000001     49.043099999999995     50.308849999999993
H      47.688400000000009     48.667499999999990     45.204750000000004
H      49.729000000000006     45.188099999999991     49.765649999999994
H      50.076799999999999     45.327799999999996     47.268650000000008
H      45.923200000000001     50.811900000000009     48.372550000000004
H      46.533200000000001     50.717599999999990     46.321250000000006
