18

C      47.793349999999997     47.262599999999992     47.649749999999990
C      48.105950000000000     48.598300000000002     48.403449999999992
C      47.433750000000003     46.223900000000000     48.640850000000000
C      48.411750000000005     48.767199999999995     49.761049999999997
C      47.665849999999999     47.133499999999998     46.207849999999993
C      48.495049999999999     49.607199999999999     47.531449999999992
C      47.510150000000003     46.338699999999996     50.163449999999997
C      48.088450000000009     47.615299999999998     50.659349999999989
C      48.121949999999998     48.106999999999999     45.377249999999989
C      48.535150000000002     49.400700000000008     45.998049999999992
H      46.894950000000001     45.315199999999997     48.258150000000001
H      48.645550000000000     49.711599999999997     50.154449999999997
H      47.279550000000000     46.368400000000001     45.701749999999990
H      48.612849999999995     50.684800000000003     47.766849999999991
H      47.330350000000003     45.493699999999997     50.742750000000001
H      48.209750000000000     47.753200000000000     51.750850000000000
H      48.099149999999995     47.955800000000004     44.249150000000000
H      49.105049999999999     50.064799999999998     45.436849999999993
