17

C      48.301949999999991     47.995929999999994     48.610649999999993
C      47.501050000000006     47.096330000000002     47.779849999999996
C      48.139049999999997     49.272930000000002     48.524450000000002
C      46.261150000000001     47.584330000000001     47.162849999999992
C      49.510949999999994     47.605130000000003     49.215949999999992
C      48.096550000000008     45.720190000000002     47.554149999999993
C      47.129249999999999     49.853430000000003     47.618449999999996
C      46.147649999999999     48.995530000000002     46.878249999999994
C      49.841049999999996     46.164600000000000     49.157550000000001
C      49.085949999999997     45.279290000000003     48.329449999999994
H      48.806150000000002     49.991230000000002     48.940949999999987
H      45.757750000000001     46.806260000000002     46.666650000000004
H      50.210949999999997     48.259230000000002     49.825050000000005
H      47.520949999999999     45.018870000000000     46.974750000000000
H      46.934849999999997     50.981130000000000     47.404150000000001
H      45.458650000000006     49.437330000000003     46.174949999999995
H      50.541349999999994     45.665330000000004     49.678650000000005
