64

C      46.277850000000001     49.348899999999986     50.019199999999998
C      50.461749999999995     46.427800000000005     45.918199999999999
C      45.149349999999998     48.378299999999996     49.701099999999997
C      46.943950000000001     45.117800000000003     46.539400000000001
C      47.583249999999992     48.881299999999996     49.573599999999999
C      48.175449999999998     46.191500000000005     46.038600000000002
C      45.223649999999992     47.553600000000003     48.452500000000001
C      45.517049999999998     45.499700000000004     46.781300000000002
C      49.158249999999995     47.535200000000003     47.964900000000000
C      47.836050000000000     47.914500000000004     48.566200000000009
C      49.404949999999999     46.718000000000004     46.910200000000003
C      46.588250000000002     47.652900000000002     47.694900000000004
C      46.812749999999994     46.406599999999997     46.697500000000005
C      44.084549999999993     46.823499999999996     48.108900000000006
C      44.152749999999997     45.844000000000008     46.960099999999997
C      45.922449999999998     50.595500000000001     50.861000000000004
C      44.849350000000001     50.576200000000000     51.654899999999998
C      43.963849999999994     49.618800000000007     51.546199999999999
C      44.078850000000003     48.548699999999997     50.587900000000005
C      47.948049999999995     47.121200000000002     44.681399999999996
C      47.165049999999994     43.539600000000007     46.055700000000002
C      45.169449999999998     48.587699999999998     47.405100000000004
C      49.056950000000001     51.488000000000000     48.118400000000008
C      49.952849999999998     52.244799999999998     48.988000000000000
C      47.744649999999993     51.130700000000004     48.727100000000007
C      49.075350000000000     52.454900000000009     50.358699999999999
C      49.455849999999998     50.891000000000005     46.783900000000003
C      51.252249999999989     52.485100000000003     48.508899999999997
C      47.765749999999997     51.849500000000006     49.952700000000007
C      46.719849999999994     51.878600000000006     50.877200000000002
C      50.744249999999994     51.305400000000006     46.417299999999997
C      51.727449999999990     52.184700000000007     47.196799999999996
C      52.287549999999996     47.930300000000003     44.492000000000004
C      51.788349999999994     47.277100000000004     45.926100000000005
H      50.763849999999991     45.464399999999998     45.748199999999997
H      48.386349999999993     49.269400000000005     50.189099999999996
H      50.099149999999995     48.162700000000001     48.452500000000001
H      43.157150000000001     46.884600000000006     48.708100000000002
H      43.273349999999994     45.448800000000006     46.547200000000004
H      44.770750000000007     51.425300000000007     52.381299999999996
H      42.861350000000002     49.624800000000008     51.919499999999999
H      43.167950000000005     47.879100000000008     50.428600000000003
H      47.175349999999995     48.034000000000006     44.674999999999997
H      47.456350000000000     46.648700000000005     43.962400000000002
H      48.898349999999994     47.662300000000002     44.139099999999999
H      47.944549999999992     43.319900000000004     45.377800000000008
H      47.189949999999996     42.603799999999993     46.956100000000006
H      46.079049999999995     43.321600000000004     45.570099999999996
H      44.620649999999998     48.356899999999996     46.691500000000005
H      45.455349999999996     49.611300000000000     47.742000000000004
H      49.942749999999990     46.757000000000005     44.964799999999997
H      46.937349999999995     50.549999999999997     48.160399999999996
H      49.199150000000003     53.396200000000007     50.824300000000008
H      48.651849999999996     50.286699999999996     46.273200000000003
H      51.901349999999994     53.236199999999997     48.983199999999997
H      49.750450000000001     52.022700000000000     51.054800000000000
H      46.739549999999994     52.386899999999997     51.748800000000003
H      51.055349999999990     50.711399999999998     45.471100000000007
H      52.644449999999992     52.694000000000003     46.754999999999995
H      53.138649999999998     48.669700000000006     44.578600000000009
H      51.658050000000003     48.457599999999999     43.888199999999998
H      52.004849999999990     47.869500000000002     46.946700000000007
H      52.679349999999999     46.758200000000002     45.852199999999996
H      52.328649999999996     47.095900000000000     43.618700000000004
