18

C      47.527699999999996     47.359234999999991     48.107799999999997
C      47.774400000000007     48.731735000000000     48.186200000000007
C      47.432099999999998     46.433034999999990     49.225200000000008
C      48.172500000000007     49.478600999999998     49.240500000000004
C      47.866300000000003     46.776434999999992     46.812100000000008
C      48.264800000000001     49.552964000000003     47.036200000000001
C      47.767999999999994     47.302634999999995     50.481900000000003
C      48.374400000000001     48.572334999999995     50.439900000000002
C      47.924500000000002     47.592034999999996     45.577200000000005
C      48.292399999999994     49.036953999999994     45.691200000000002
H      47.436000000000000     45.375334999999993     49.229700000000001
H      48.567900000000002     50.465455000000006     49.094500000000004
H      48.210600000000007     45.728234999999998     46.554300000000005
H      48.484800000000000     50.624665000000007     47.433100000000003
H      47.510500000000000     46.557834999999997     51.211700000000015
H      48.501399999999997     49.368417000000001     51.255699999999997
H      48.046399999999998     47.083734999999990     44.744300000000003
H      48.504799999999996     49.726792000000003     44.988100000000010
