70

C      46.249199999999988     49.609449999999988     45.778984999999992
C      53.266300000000001     48.794150000000002     53.852849999999997
C      46.878699999999995     48.306349999999995     45.337206000000002
C      52.649700000000010     49.960149999999999     53.019619999999996
C      46.935100000000006     50.606449999999995     46.631720000000008
C      52.837400000000002     47.521249999999995     53.560150000000000
C      47.971000000000004     47.597849999999994     45.981490000000001
C      52.113399999999999     49.881850000000000     51.726989999999994
C      49.124500000000012     50.833849999999998     47.884040000000006
C      51.113100000000003     46.194749999999999     48.547219999999996
C      50.072599999999994     46.861649999999997     47.754669999999997
C      49.921300000000002     50.188149999999993     48.857030000000002
C      52.163799999999995     45.928749999999994     50.703579999999995
C      48.065600000000003     49.945250000000001     47.264879999999998
C      52.173800000000000     47.117549999999994     51.925080000000001
C      51.377799999999993     46.731650000000002     49.845589999999994
C      48.654600000000002     48.610649999999993     46.891639999999988
C      51.843699999999998     48.418549999999996     51.331139999999998
C      49.672299999999993     48.097250000000003     47.734509999999993
C      50.476200000000006     48.867750000000001     48.816589999999998
C      51.235900000000001     48.180350000000004     49.928129999999989
C      48.408400000000000     46.214449999999999     45.904289999999996
C      49.504400000000004     45.722350000000006     46.912979999999997
C      44.942999999999998     50.033150000000006     45.204521999999997
C      44.149100000000004     49.022750000000002     44.402450000000016
C      44.555999999999997     47.752150000000000     44.089250000000000
C      46.031999999999996     47.451250000000002     44.379650000000005
C      46.453900000000004     46.112750000000005     44.301250000000003
C      47.551800000000000     45.586349999999996     44.855450000000026
C      45.269599999999997     52.424350000000004     45.704912999999998
C      44.319699999999997     51.339050000000000     45.187092000000000
C      51.655500000000004     44.733249999999998     48.318300000000001
C      50.325900000000004     43.931349999999995     48.042499999999997
C      49.697599999999994     44.403549999999996     46.809770000000000
C      43.709500000000006     46.610749999999996     43.720649999999999
C      44.224000000000004     45.361949999999993     42.893449999999994
C      45.470699999999994     45.161649999999995     43.708349999999996
C      44.603600000000000     45.634050000000002     41.397350000000017
C      47.948700000000002     43.949950000000001     44.598849999999992
H      46.019300000000001     52.374549999999999     47.683819999999990
H      53.396100000000004     48.981949999999998     55.071149999999996
H      52.394999999999996     50.986649999999997     53.447399999999995
H      51.786500000000004     50.671750000000003     51.065660000000001
H      48.947400000000002     51.873350000000002     47.951299999999996
H      50.213700000000003     50.922849999999997     49.547719999999998
H      52.146599999999992     44.937550000000002     51.456289999999996
H      53.045800000000000     45.889849999999996     50.098189999999995
H      43.384100000000004     49.623750000000001     44.186450000000008
H      44.785399999999996     53.195549999999997     46.109510000000007
H      45.864300000000000     52.808549999999997     44.755950000000006
H      43.379499999999993     51.598550000000003     45.778945999999998
H      44.082999999999998     51.933549999999997     44.262150000000027
H      51.943500000000000     44.710750000000004     47.209769999999999
H      52.208299999999994     43.887249999999995     48.801260000000006
H      49.655799999999999     44.264049999999997     48.894699999999993
H      50.854799999999997     42.804450000000003     48.028479999999995
H      48.030200000000008     44.046350000000004     43.542950000000026
H      49.241100000000003     43.687049999999999     46.268090000000001
H      42.603899999999996     47.192949999999996     43.372350000000012
H      42.826300000000003     45.966250000000002     44.275850000000013
H      43.545699999999997     44.574950000000001     42.820850000000014
H      46.162899999999993     44.485649999999993     42.913250000000012
H      45.279499999999999     44.173249999999996     44.307250000000010
H      45.828000000000003     45.840450000000004     41.324249999999999
H      44.325599999999994     46.629450000000006     40.930650000000021
H      44.190200000000004     44.806650000000005     40.928850000000004
H      49.058900000000008     43.876149999999996     44.803150000000016
H      47.384000000000000     43.031850000000006     45.039699999999996
N      46.499799999999993     51.901150000000001     46.863160000000001
O      51.865600000000001     46.761049999999997     53.365069999999996
