18

C      47.187149999999988     47.527149999999992     47.636799999999994
C      48.209849999999996     48.234049999999996     48.254000000000005
C      46.981649999999995     46.146550000000005     48.188099999999999
C      48.828649999999989     47.064250000000001     49.184400000000004
C      46.330349999999996     48.038349999999994     46.704999999999998
C      48.441549999999999     49.665250000000015     47.990800000000000
C      49.568949999999994     46.334350000000001     48.225299999999997
C      48.280849999999994     45.770750000000007     48.664600000000000
C      46.227449999999997     49.443749999999994     46.714800000000004
C      47.209749999999993     50.278950000000009     47.430599999999998
H      46.112549999999992     45.470749999999995     48.243299999999998
H      49.364950000000000     47.646450000000002     49.974800000000002
H      45.534149999999997     47.443849999999998     46.025199999999998
H      49.406249999999993     50.142850000000010     48.185099999999998
H      50.579950000000004     45.922849999999997     48.119599999999998
H      48.419549999999994     44.702950000000001     49.146300000000004
H      45.420049999999996     49.999150000000014     46.309699999999999
H      47.177249999999994     51.297049999999999     47.150800000000004
