18

C      47.726199999999992     47.732899999999987     47.490800000000000
C      48.439199999999992     48.058599999999998     48.720500000000001
C      48.007799999999996     48.589400000000012     46.279600000000002
C      49.425099999999993     49.205800000000011     48.737800000000007
C      46.754799999999996     46.658100000000005     47.189800000000005
C      47.670799999999993     47.702500000000001     49.910399999999996
C      48.676399999999994     49.861400000000003     46.410899999999998
C      49.323799999999999     50.225700000000003     47.682699999999997
C      46.297800000000002     45.932699999999997     48.404200000000003
C      46.609000000000002     46.791200000000003     49.636899999999997
H      47.565199999999997     48.526799999999994     45.196200000000005
H      49.793500000000002     49.085300000000004     49.814700000000002
H      46.577199999999998     46.297799999999995     46.109600000000000
H      48.008100000000006     48.221900000000005     50.803799999999995
H      48.661700000000003     50.635100000000008     45.656999999999996
H      49.883900000000004     51.126800000000003     47.591200000000001
H      46.116099999999996     44.873199999999997     48.515200000000007
H      46.329799999999999     46.257499999999993     50.546300000000002
