22

C      46.398999999999994     46.005899999999983     45.372549999999990
C      48.524000000000001     47.379099999999994     48.913150000000002
C      47.592699999999994     48.142099999999999     48.198850000000007
C      49.405900000000003     48.171899999999994     49.774750000000012
C      47.299400000000006     49.575099999999992     48.641249999999999
C      49.164299999999997     46.194899999999990     48.255949999999999
C      46.609999999999999     47.443699999999993     47.361150000000009
C      48.975300000000004     49.415899999999993     50.437550000000002
C      47.792199999999994     50.134399999999999     49.986750000000001
C      48.284199999999998     45.860599999999991     47.156350000000003
C      46.916499999999999     46.127499999999998     46.969549999999998
H      47.135800000000003     45.405099999999990     44.905749999999998
H      45.927799999999998     46.830399999999997     45.004350000000002
H      45.557000000000002     45.376599999999996     45.728350000000006
H      50.442999999999998     47.692399999999992     50.003850000000000
H      47.216300000000004     50.169499999999999     47.807850000000002
H      50.236800000000002     45.937100000000001     48.404849999999996
H      45.766799999999996     48.095500000000001     47.203550000000007
H      49.654600000000002     50.079300000000003     51.094250000000002
H      47.567700000000002     51.183900000000008     50.114649999999997
H      48.445700000000002     44.816099999999992     46.708349999999996
H      46.321599999999997     45.272799999999989     47.532950000000000
