8

C      48.541199999999996     47.894750000000002     46.914149999999985
C      47.857700000000008     47.893450000000001     49.469750000000005
C      47.595799999999997     47.834950000000006     47.959350000000001
H      49.474299999999999     48.517849999999996     47.030850000000001
H      47.957900000000009     47.482150000000004     45.913250000000005
H      46.851300000000009     47.495149999999995     49.687249999999992
H      46.525700000000001     47.789650000000009     47.680149999999998
H      48.907499999999999     47.675849999999997     50.086749999999995
