18

C      48.891249999999992     48.020949999999985     48.219999999999992
C      47.497349999999997     47.447449999999996     47.825400000000002
C      49.284849999999999     47.207849999999993     49.363000000000000
C      46.759450000000001     46.646449999999994     48.662700000000001
C      49.277450000000002     49.420949999999998     48.295099999999998
C      47.326850000000000     48.232449999999993     46.494599999999998
C      48.759650000000001     46.009849999999993     49.902999999999999
C      47.483850000000004     45.644149999999996     49.470299999999995
C      48.909649999999999     50.106249999999996     47.103499999999997
C      48.066649999999996     49.461750000000002     46.153999999999996
H      50.318449999999999     47.763849999999998     49.281999999999996
H      45.681550000000001     46.531649999999992     48.375500000000002
H      49.798349999999999     49.886949999999992     49.232799999999997
H      46.345250000000000     48.021949999999997     46.070700000000002
H      49.077250000000006     45.443949999999994     50.797399999999996
H      46.868650000000002     44.857149999999997     49.922799999999995
H      49.263350000000003     51.142850000000003     46.692200000000000
H      48.227850000000004     50.056149999999995     45.202600000000004
