18

C      47.657700000000006     48.773849999999996     47.466599999999993
C      48.509100000000004     47.780650000000001     48.188599999999994
C      47.269200000000012     48.335950000000004     46.132400000000004
C      48.653500000000008     46.401750000000000     47.978499999999997
C      47.031000000000006     49.962150000000001     48.099699999999999
C      48.791700000000006     48.075350000000000     49.651300000000006
C      47.507300000000001     46.951850000000000     45.927700000000002
C      47.929900000000004     45.906649999999999     46.812700000000007
C      47.542400000000001     50.266050000000000     49.394800000000004
C      48.210900000000009     49.227750000000000     50.257800000000003
H      46.478800000000007     48.846750000000007     45.390100000000004
H      49.173500000000004     45.827750000000002     48.598200000000006
H      46.476300000000009     50.800549999999994     47.559399999999997
H      49.523699999999991     47.547649999999997     50.216399999999993
H      46.953200000000010     46.754849999999998     44.831800000000001
H      47.443300000000008     44.815350000000002     46.902700000000003
H      47.019600000000011     51.184649999999998     49.812600000000003
H      48.510800000000003     49.672049999999999     51.168199999999999
