51

C      50.337449999999990     46.645499999999998     44.152589999999989
C      47.751749999999994     47.132300000000001     45.462580000000003
C      49.921349999999997     44.684700000000007     49.059899999999999
C      47.541549999999994     45.905100000000004     46.044370000000001
C      48.006650000000000     48.434399999999997     46.244200000000006
C      48.970450000000000     44.836399999999998     47.717760000000013
C      47.983950000000000     49.614100000000008     48.391999999999996
C      49.167949999999998     45.569400000000002     50.100070000000002
C      48.537749999999996     48.189900000000009     50.434670000000011
C      47.920449999999995     45.814300000000003     47.539240000000007
C      47.991549999999997     48.260500000000008     47.763090000000005
C      48.772649999999999     46.960200000000000     49.692070000000001
C      48.330949999999994     47.020400000000009     48.371780000000001
C      47.310350000000000     44.599900000000005     45.352890000000002
C      48.542049999999996     43.738700000000009     45.418620000000004
C      49.318349999999995     43.954000000000008     46.624610000000004
C      48.471349999999994     49.727800000000002     46.014120000000005
C      48.372650000000000     50.833200000000005     47.101800000000011
C      47.142550000000000     50.872299999999996     47.893839999999997
C      48.456150000000001     44.694800000000001     51.008670000000009
C      46.884850000000000     45.076300000000003     50.759169999999997
C      49.870550000000001     45.226200000000006     51.472970000000004
C      47.021449999999994     52.253900000000002     48.700130000000001
C      45.746150000000000     50.513199999999998     47.494900000000001
H      50.337349999999994     46.804500000000004     45.269649999999999
H      48.573749999999997     50.173200000000008     44.908019999999993
H      48.942850000000000     48.052199999999999     51.481270000000009
H      46.411049999999996     44.876599999999996     51.692869999999999
H      46.455449999999999     44.025599999999997     45.924880000000002
H      47.145149999999994     44.758300000000006     44.263500000000008
H      48.962550000000000     43.110600000000005     44.716380000000001
H      51.152549999999998     45.034599999999998     48.904820000000001
H      50.128349999999998     43.344600000000000     46.796130000000005
H      50.727749999999993     47.434299999999993     43.693529999999996
H      51.099550000000001     45.727199999999996     44.051490000000001
H      48.867249999999999     51.727699999999999     46.619969999999995
H      50.943249999999999     44.812300000000008     51.323470000000000
H      48.101849999999999     44.126599999999996     51.922070000000005
H      46.831649999999996     45.844700000000003     49.958470000000005
H      46.123349999999995     44.326599999999999     50.524770000000004
H      50.315049999999999     43.655799999999999     49.438869999999994
H      49.293050000000001     45.800399999999996     52.306470000000004
H      46.696449999999999     52.018600000000006     49.745070000000013
H      47.788549999999994     52.870400000000004     49.130960000000002
H      46.399250000000002     52.889399999999995     48.090540000000004
H      44.847450000000002     50.988100000000003     47.980570000000000
H      45.638449999999999     50.900300000000001     46.384039999999999
H      45.808450000000001     49.276300000000006     47.532050000000012
H      48.570749999999997     50.326200000000000     50.678470000000004
N      48.281349999999996     49.434600000000003     49.982370000000003
S      48.420049999999996     46.776699999999991     43.750190000000003
