18

C      48.422599999999996     47.738699999999987     48.278699999999986
C      47.277799999999999     47.795899999999989     47.277500000000003
C      47.873999999999995     47.550500000000000     49.585499999999996
C      45.932400000000001     47.440399999999997     47.605199999999996
C      48.013500000000008     48.568599999999989     46.148099999999999
C      49.392499999999998     48.331999999999994     45.721299999999999
C      46.510400000000004     47.169199999999989     50.037700000000001
C      45.560299999999998     47.131699999999995     48.967399999999998
C      49.796800000000005     48.025799999999990     47.984799999999993
C      50.397500000000008     48.036199999999994     46.684899999999999
H      48.851600000000005     47.625799999999998     50.160299999999992
H      45.399500000000003     47.102199999999996     46.711500000000001
H      49.505800000000008     48.966999999999999     44.796300000000002
H      46.424199999999999     46.800500000000000     51.203699999999998
H      44.531400000000005     46.952799999999996     49.355800000000002
H      50.542900000000003     48.212599999999995     48.892200000000003
H      51.468599999999995     48.134699999999995     46.622799999999998
O      47.185200000000009     49.199500000000000     45.536400000000000
