18

C      48.820799999999991     47.806004999999999     47.946519999999992
C      47.386499999999998     48.187854999999999     48.304219999999994
C      49.610599999999998     47.816434999999998     49.226319999999994
C      46.810600000000001     48.415285000000011     49.643119999999989
C      48.976000000000006     47.918145000000010     46.485520000000001
C      46.337299999999999     48.684044999999998     47.365220000000001
C      48.879100000000001     47.573774999999998     50.475319999999989
C      47.478999999999999     47.682565000000011     50.654255300000010
C      48.053300000000000     48.567295000000001     45.490819999999992
C      46.738499999999995     48.733535000000003     45.979419999999998
H      50.676499999999997     47.501825000000011     49.060420000000001
H      45.606600000000000     48.653194999999997     49.886819999999993
H      49.833900000000007     47.566015000000007     45.886719999999990
H      45.323500000000003     49.031944999999993     47.754719999999999
H      49.644500000000001     46.968055000000007     50.880235000000006
H      47.106900000000003     47.260885000000002     51.582580000000000
H      48.166999999999994     48.693145000000001     44.417420000000000
H      46.350699999999996     48.982804999999999     45.066820000000000
