18

C      48.324849999999998     48.177699999999994     48.600749999999998
C      47.443450000000006     47.881900000000002     47.505450000000003
C      48.809850000000004     46.995000000000005     49.473750000000010
C      47.174650000000007     46.399300000000004     47.313650000000003
C      48.695850000000000     49.630000000000010     48.935550000000006
C      47.007350000000002     49.009700000000009     46.603149999999999
C      48.514650000000010     45.669899999999998     49.281150000000011
C      47.535450000000004     45.368200000000002     48.168950000000002
C      48.413750000000000     50.489300000000000     47.957050000000002
C      47.449350000000003     50.278300000000002     46.879550000000002
H      49.560549999999999     46.926300000000005     50.306049999999999
H      46.774250000000002     46.109100000000005     46.385249999999999
H      49.138750000000009     49.906700000000001     49.816050000000004
H      46.439450000000001     48.935400000000001     45.693950000000001
H      48.875450000000008     44.866500000000002     49.878550000000004
H      47.090949999999999     44.474800000000002     47.886450000000004
H      48.969650000000009     51.525199999999998     48.234450000000002
H      47.146350000000005     51.103499999999997     46.238250000000008
