18

C      48.093929999999993     48.704049999999995     48.452599999999990
C      47.398329999999994     47.662750000000003     47.668199999999999
C      48.106780000000001     48.885549999999995     49.985300000000002
C      46.881859999999996     46.549250000000001     48.485999999999997
C      48.785190000000000     49.730149999999995     47.689200000000000
C      47.532589999999999     47.588650000000001     46.280899999999995
C      47.452649999999998     47.728749999999991     50.667600000000000
C      46.918789999999994     46.681150000000002     49.901199999999996
C      48.748659999999987     49.698249999999987     46.225400000000000
C      48.034139999999994     48.664149999999992     45.474499999999999
H      48.616739999999993     49.702950000000001     50.492899999999999
H      46.495970000000000     45.561549999999997     48.147599999999997
H      49.504030000000000     50.438450000000003     48.220300000000002
H      47.104099999999995     46.746749999999992     45.844900000000003
H      47.562189999999994     47.441450000000003     51.663400000000003
H      46.544339999999998     45.803849999999997     50.443800000000003
H      49.344739999999994     50.379949999999994     45.713299999999997
H      48.278559999999999     48.817049999999995     44.336599999999997
