18

C      48.109849999999987     48.755349999999993     47.945549999999997
C      47.474750000000000     47.446949999999994     47.895350000000001
C      49.066049999999990     48.600149999999992     46.822650000000003
C      47.400750000000002     46.345449999999992     46.873150000000003
C      48.321950000000001     49.657750000000000     49.130650000000010
C      46.954949999999997     46.978949999999990     49.175750000000001
C      48.905349999999999     47.734449999999988     45.669450000000005
C      48.148649999999989     46.487449999999988     45.684050000000006
C      47.613849999999999     49.138249999999992     50.152050000000010
C      47.018349999999998     47.801749999999991     50.330550000000009
H      49.619450000000001     49.532849999999989     46.613450000000007
H      46.877749999999992     45.372149999999998     46.787450000000000
H      48.764349999999993     50.627850000000002     49.144650000000006
H      46.856249999999989     45.929849999999995     49.367049999999999
H      49.574950000000001     47.908249999999988     44.760150000000003
H      48.464149999999989     45.855349999999994     44.867849999999997
H      47.816850000000002     49.438649999999988     51.107750000000003
H      46.380549999999999     47.605950000000000     51.239849999999997
