18

C      47.806100000000001     47.047399999999989     48.662250000000000
C      48.625099999999996     47.682199999999995     47.573250000000002
C      46.370800000000010     46.853699999999989     48.203550000000007
C      48.216299999999997     47.921299999999988     46.201449999999994
C      48.572800000000008     47.099199999999996     50.013649999999998
C      49.984900000000003     48.344099999999997     47.735650000000007
C      46.086400000000005     47.266099999999994     46.827250000000006
C      46.938000000000009     47.651799999999994     45.763149999999996
C      49.601000000000006     47.861699999999999     50.171650000000000
C      50.145600000000009     48.670999999999992     49.084649999999996
H      45.493400000000001     46.737499999999997     48.901550000000000
H      49.005699999999997     47.971699999999998     45.325050000000005
H      48.274700000000003     46.570599999999999     50.780950000000004
H      50.398299999999999     49.096999999999994     46.962750000000000
H      45.073900000000002     47.190899999999999     46.530150000000006
H      46.667400000000008     47.786099999999990     44.783450000000002
H      50.185300000000005     47.982799999999997     51.216549999999998
H      50.926099999999998     49.429400000000001     49.221649999999997
