18

C      47.887945000000002     47.311249999999994     48.081099999999992
C      48.458884999999995     48.570049999999995     48.003700000000002
C      48.408495000000002     46.358950000000000     47.183300000000003
C      49.528925000000001     49.154349999999994     47.113199999999999
C      46.845725000000002     46.990549999999999     48.970399999999998
C      47.531610000000001     49.750850000000000     48.467300000000002
C      49.515095000000002     46.586449999999999     46.316400000000002
C      50.016244999999998     48.101950000000002     46.370100000000001
C      46.084205000000011     48.206150000000008     49.401299999999999
C      46.320905000000025     49.510050000000007     49.156199999999991
H      48.021875000000009     45.267650000000003     47.357599999999998
H      50.002445000000009     50.186149999999998     47.266500000000001
H      46.509005000000016     46.059849999999997     49.239699999999992
H      47.931605000000005     50.732349999999997     48.397100000000002
H      50.210164999999989     45.785250000000005     45.863799999999998
H      50.874195000000000     48.500250000000008     45.859400000000001
H      45.125805000000000     48.196550000000002     50.140599999999999
H      45.912705000000003     50.439949999999996     49.362000000000002
