18

C      47.430949999999989     47.578449999999997     48.393100000000004
C      48.607450000000000     47.928250000000006     47.560099999999991
C      46.192349999999998     47.115650000000002     47.689599999999999
C      48.578949999999992     47.964550000000003     46.073000000000008
C      47.415649999999999     47.884450000000001     49.818399999999997
C      49.708749999999995     48.482849999999999     48.286999999999992
C      46.263849999999998     47.362450000000003     46.360399999999998
C      47.311849999999993     47.831250000000011     45.450500000000005
C      48.502150000000000     48.400050000000007     50.575900000000004
C      49.644149999999996     48.755650000000003     49.732399999999998
H      45.360050000000001     46.926550000000006     48.343000000000004
H      49.298449999999988     48.294950000000000     45.317700000000002
H      46.646049999999995     47.549350000000004     50.474199999999996
H      50.717449999999999     48.691550000000007     47.863100000000003
H      45.282550000000001     47.526450000000004     45.846900000000005
H      47.276649999999997     48.079950000000004     44.378500000000003
H      48.444149999999993     48.472549999999998     51.621499999999997
H      50.602649999999997     49.073449999999994     50.348699999999994
