54

C      45.190849999999998     48.704129999999999     47.124599999999994
C      45.081350000000008     49.217630000000000     45.721200000000003
C      50.001150000000003     47.923330000000007     46.304700000000004
C      49.883050000000004     48.722030000000004     44.927500000000002
C      46.556249999999999     48.321629999999999     47.484700000000004
C      46.420549999999999     49.699730000000002     45.034500000000001
C      48.999550000000006     48.055030000000002     47.313400000000001
C      48.722850000000001     49.233130000000003     44.237400000000001
C      47.694550000000000     48.421229999999994     46.608000000000004
C      47.774450000000009     48.953930000000000     45.272700000000000
C      43.998650000000005     48.100430000000003     47.822099999999992
C      43.230650000000004     46.342230000000001     49.257300000000001
C      43.784450000000000     49.559129999999996     45.413699999999999
C      51.315450000000006     47.305229999999995     46.574700000000000
C      52.471750000000007     47.469229999999996     45.767600000000002
C      52.145150000000008     48.230429999999998     44.652000000000001
C      51.176049999999996     49.120030000000000     44.318600000000004
C      44.192150000000005     47.409230000000008     48.947000000000003
C      42.140750000000004     45.370230000000006     48.984600000000000
C      42.377050000000004     46.007429999999999     51.715100000000000
C      42.649850000000008     45.452730000000003     50.399599999999992
C      46.584250000000004     47.956130000000002     49.070799999999998
C      45.553550000000008     46.943629999999999     49.617200000000011
C      53.483750000000008     48.242030000000000     44.129500000000000
C      45.373250000000006     46.743530000000007     51.134299999999996
C      46.705149999999996     49.476129999999998     49.618700000000004
C      45.944550000000000     45.577529999999996     49.164199999999994
C      42.761150000000008     48.227530000000002     47.162600000000005
C      46.187950000000008     50.644308000000009     44.011099999999999
H      41.895550000000007     48.867930000000001     44.946000000000005
H      49.171450000000000     47.465530000000001     48.190000000000005
H      48.659550000000003     49.843948500000010     43.239600000000003
H      43.756549999999997     50.504495000000006     44.614600000000003
H      51.454749999999997     47.099230000000006     47.676800000000000
H      53.512049999999995     46.987030000000004     45.982199999999999
H      51.379950000000001     49.680729999999997     43.416699999999999
H      41.455249999999999     45.693730000000002     48.103000000000009
H      47.362450000000003     47.302930000000003     49.581500000000005
H      44.411650000000002     46.185130000000001     51.310700000000004
H      45.963349999999998     46.026430000000005     51.725300000000004
H      45.207550000000005     47.613129999999998     51.807199999999995
H      46.812050000000006     49.500929999999997     50.684000000000005
H      45.846449999999997     49.827639563000005     49.029299999999992
H      47.699450000000006     50.001088000000010     49.421700000000001
H      45.266449999999999     45.480329999999995     48.358600000000010
H      46.785649999999997     45.446730000000002     48.659199999999998
H      45.951150000000005     44.636629999999997     49.744300000000010
H      42.228749999999998     47.472930000000005     46.788000000000004
H      41.882849999999998     48.321629999999999     47.920999999999992
H      46.956650000000003     51.104560000000006     43.542200000000001
H      45.272650000000006     51.363370000000003     43.953400000000002
N      42.580649999999999     49.244330000000005     46.032100000000000
O      54.544750000000001     47.996330000000000     44.484900000000003
O      41.862249999999996     46.306430000000006     52.760399999999997
