18

C      47.551399999999994     48.305749999999989     47.387549999999990
C      47.747000000000000     47.926449999999996     48.767249999999997
C      46.890199999999993     47.126349999999995     46.783049999999996
C      47.787400000000005     46.761249999999997     49.688549999999999
C      48.099900000000005     49.200449999999996     46.424649999999993
C      48.585499999999996     49.122549999999997     49.256449999999994
C      46.632800000000003     46.000350000000005     47.585649999999994
C      46.885800000000003     45.888750000000009     49.074750000000002
C      48.917199999999994     50.271450000000009     46.938150000000000
C      49.000200000000007     50.249749999999999     48.386850000000003
H      46.857100000000003     47.106349999999999     45.729350000000004
H      47.906999999999996     46.770050000000005     50.821149999999996
H      47.817300000000003     49.168349999999997     45.178850000000004
H      48.676500000000004     49.157850000000003     50.317550000000004
H      46.366100000000003     45.107549999999996     46.970549999999996
H      46.413200000000003     45.066150000000000     49.771449999999994
H      49.633899999999997     50.858150000000002     46.406050000000000
H      49.510199999999998     50.933850000000000     49.327750000000002
