18

C      48.081849999999996     48.558899999999987     47.539499999999997
C      48.113849999999999     47.237899999999996     48.260000000000005
C      49.335549999999998     49.140299999999996     46.983599999999996
C      49.304150000000007     46.507400000000004     48.589600000000004
C      46.879550000000002     49.454899999999995     47.509500000000003
C      46.703749999999999     47.012500000000003     48.882499999999993
C      50.636750000000006     48.503399999999999     47.438699999999997
C      50.457350000000005     47.262900000000002     48.117699999999999
C      45.540850000000006     49.073999999999998     48.020499999999998
C      45.521750000000004     47.659700000000001     48.655299999999997
H      49.429249999999996     50.100499999999997     46.563500000000005
H      49.492950000000008     45.593699999999998     49.221400000000003
H      46.731850000000001     50.406300000000002     47.028599999999997
H      46.788150000000002     46.061800000000005     49.436499999999995
H      51.494249999999994     48.955299999999994     47.425500000000000
H      51.384250000000002     46.682299999999998     48.530199999999994
H      44.896650000000001     49.848600000000005     47.982900000000001
H      44.505750000000006     47.316599999999994     48.905199999999994
