18

C      47.074149999999996     48.038599999999988     48.286549999999991
C      48.486350000000002     48.266200000000005     47.658549999999998
C      47.530850000000001     47.524099999999997     49.622050000000009
C      49.801850000000002     48.277799999999992     48.308850000000000
C      45.685249999999996     48.411200000000001     47.996950000000005
C      48.242850000000004     48.576900000000002     46.225749999999998
C      48.791550000000001     47.269900000000000     50.241550000000011
C      50.040549999999996     47.846100000000000     49.679949999999998
C      45.790250000000000     48.852600000000002     46.610150000000012
C      46.935550000000006     48.923700000000004     45.817350000000012
H      46.792050000000003     47.171200000000006     50.192550000000004
H      50.258449999999996     48.425000000000004     47.335650000000008
H      45.027450000000002     48.820799999999998     48.717850000000006
H      49.051349999999999     48.476300000000002     45.470750000000002
H      48.906350000000003     46.881800000000005     51.312249999999999
H      51.049049999999994     47.724899999999998     50.129049999999999
H      44.950950000000006     49.118199999999995     46.167350000000006
H      47.064250000000001     49.021599999999999     44.687750000000001
