18

C      48.738599999999991     48.309349999999995     48.231711999999987
C      47.384699999999995     48.220550000000003     47.738346999999990
C      49.244400000000013     48.363050000000008     49.550639999999994
C      46.310699999999997     48.250950000000003     48.792209999999990
C      49.866299999999995     48.086350000000003     47.212429999999991
C      47.267099999999999     48.117049999999999     46.218229999999984
C      48.185699999999997     48.136450000000004     50.586189999999995
C      46.896799999999999     48.041249999999998     50.201349999999991
C      49.696899999999999     47.776550000000007     45.885930000000016
C      48.358800000000002     47.900849999999998     45.373930000000009
H      50.441999999999993     48.548650000000002     49.737069999999996
H      45.171999999999997     48.092950000000002     48.690879999999993
H      50.828000000000003     48.137650000000001     47.677748999999991
H      46.251999999999995     47.873449999999998     45.627330000000022
H      48.405900000000003     48.082750000000004     51.616269999999993
H      45.982100000000003     47.689150000000005     50.852619999999995
H      50.426699999999997     47.451349999999998     45.120830000000005
H      47.944900000000004     47.748049999999999     44.383730000000007
