18

C      48.218849999999989     47.934260499999993     47.365849999999988
C      48.044150000000002     48.070850499999992     48.720949999999988
C      47.341650000000001     46.817660500000002     46.773449999999997
C      47.245249999999999     47.312030499999992     49.727450000000005
C      48.978149999999992     48.687060499999987     46.440049999999992
C      49.004049999999999     48.959310499999987     49.123549999999994
C      46.309649999999998     46.297500499999998     47.519549999999995
C      46.213949999999997     46.589620499999995     48.951449999999994
C      49.836950000000009     49.741890499999997     46.939449999999994
C      50.025550000000003     49.723480499999994     48.351649999999992
H      47.271149999999999     46.782420500000001     45.730849999999997
H      46.981150000000000     47.376760500000003     50.636650000000003
H      48.897950000000002     48.481100499999997     45.363349999999997
H      48.931350000000002     48.885410499999992     50.310849999999988
H      45.523449999999997     45.678909500000003     46.728449999999995
H      45.261749999999999     46.155575499999998     49.316949999999991
H      50.531950000000002     50.321090499999997     46.329149999999998
H      50.738250000000001     50.312860499999985     48.896550000000005
