8

C      48.300499999999992     48.581699999999998     48.426600000000001
C      47.585799999999999     47.550100000000008     47.391100000000009
H      49.427500000000002     48.394100000000002     48.386800000000008
H      48.028100000000002     49.548899999999996     48.123500000000007
H      48.166600000000003     48.542600000000000     49.590699999999998
H      46.572499999999998     47.722900000000003     47.189300000000003
H      48.003500000000003     48.031600000000005     46.409300000000002
H      47.587200000000003     46.451100000000004     47.377800000000008
