18

C      47.717749999999995     47.315049999999992     47.502349999999993
C      48.311549999999997     47.964149999999997     48.714750000000002
C      48.684450000000005     46.843549999999993     46.583850000000005
C      49.690350000000002     48.443650000000005     48.692649999999993
C      46.194850000000002     47.039649999999995     47.261950000000006
C      47.419550000000001     48.879350000000002     49.582850000000001
C      49.987549999999999     47.405549999999998     46.656849999999999
C      50.653050000000000     48.290450000000000     47.598250000000000
C      45.399349999999998     47.883650000000003     48.214750000000002
C      46.023049999999998     48.874049999999997     49.076649999999994
H      48.462649999999989     46.412949999999995     45.620950000000001
H      50.260550000000002     49.140349999999998     49.378350000000005
H      45.716850000000001     46.386150000000001     46.438349999999993
H      47.505549999999999     49.613849999999999     50.391550000000002
H      50.180050000000001     47.347049999999996     45.608449999999998
H      51.693150000000003     48.541250000000005     47.305349999999997
H      44.306849999999997     47.904449999999997     48.035750000000000
H      45.467950000000002     49.145150000000001     50.183150000000005
