22

C      49.959499999999991     48.567299999999989     44.652399999999993
C      48.949599999999990     48.172599999999996     45.620300000000000
C      47.391899999999993     47.220800000000004     48.577499999999993
C      48.672599999999989     47.865699999999997     48.200199999999995
C      47.053100000000001     46.685600000000001     49.887400000000000
C      49.436899999999994     48.170399999999994     49.424300000000002
C      46.589900000000000     46.969199999999994     47.484399999999994
C      49.321299999999994     48.201200000000007     46.894799999999989
C      47.959199999999996     46.895500000000006     50.913899999999998
C      49.153999999999996     47.816300000000005     50.733300000000000
C      46.827999999999989     47.276299999999999     46.112200000000001
C      47.678999999999988     47.972199999999994     45.115199999999994
H      50.434500000000000     47.560300000000005     44.924799999999991
H      46.164999999999992     46.382200000000005     50.096399999999988
H      50.334799999999987     48.386599999999994     49.175399999999996
H      45.565500000000000     46.691200000000002     47.708600000000004
H      50.299399999999991     48.717400000000005     47.055999999999997
H      48.121299999999991     46.470499999999994     51.919700000000006
H      50.050100000000000     47.843399999999995     51.397299999999987
H      46.060599999999994     46.758100000000006     45.362899999999996
H      47.526499999999999     47.566700000000004     44.080299999999994
O      50.190099999999987     49.617799999999995     44.157100000000000
