18

C      47.195499999999996     47.809299999999993     48.026199999999989
C      48.658099999999990     48.282000000000011     48.311899999999994
C      46.956800000000001     46.326000000000008     47.921700000000001
C      49.796899999999994     47.438100000000006     48.286900000000003
C      46.099899999999991     48.712600000000009     47.736599999999996
C      48.823099999999997     49.726600000000019     48.098100000000002
C      48.028999999999996     45.328299999999999     47.851900000000001
C      49.338899999999995     46.073200000000000     48.021600000000007
C      46.249899999999997     50.150200000000012     47.911799999999999
C      47.716799999999992     50.581400000000002     47.954300000000003
H      46.024199999999993     45.644300000000001     47.688100000000006
H      50.868200000000002     47.813700000000011     48.310199999999995
H      45.131799999999998     48.267700000000019     47.829000000000008
H      49.755799999999994     50.156000000000006     48.229799999999997
H      47.882499999999993     44.350600000000000     47.780600000000007
H      50.222599999999986     45.441600000000008     47.994799999999998
H      45.461399999999998     50.924800000000019     47.981899999999996
H      47.787799999999990     51.649400000000000     47.777100000000004
