18

C      47.786399999999993     47.545849999999987     48.527939999999994
C      48.116900000000001     48.244549999999997     47.334130000000002
C      46.403300000000002     47.608349999999994     48.886319999999998
C      47.138100000000001     48.710249999999995     46.300269999999998
C      48.835700000000003     47.045750000000005     49.406790000000001
C      49.566699999999997     48.783849999999994     47.124320000000004
C      45.438400000000001     48.310250000000003     48.037660000000002
C      45.756100000000004     48.635650000000005     46.674239999999998
C      50.241199999999999     47.307250000000003     49.043350000000004
C      50.581900000000005     48.180649999999993     47.978930000000005
H      46.393700000000003     47.466450000000002     49.843480000000000
H      47.621200000000002     49.041050000000006     45.529420000000002
H      48.855499999999999     46.634650000000001     50.470579999999998
H      49.834800000000001     49.365349999999999     46.342300000000002
H      44.438600000000001     48.648450000000004     48.505160000000004
H      44.908900000000003     49.037249999999993     46.123500000000000
H      50.788100000000000     46.859349999999999     49.757080000000002
H      51.561399999999999     48.238549999999996     47.606160000000003
