18

C      48.302899999999994     48.618699999999990     47.926549999999992
C      47.783199999999994     47.362099999999998     48.044250000000005
C      47.349400000000003     49.704800000000006     47.505250000000004
C      46.492300000000000     47.033100000000005     47.528550000000010
C      49.662599999999998     49.110300000000009     48.002350000000007
C      48.791099999999986     46.347600000000000     48.003450000000015
C      45.871099999999998     49.457400000000007     47.251950000000008
C      45.541899999999998     48.005200000000002     47.312550000000002
C      50.489199999999997     48.005099999999999     48.522649999999999
C      50.092500000000001     46.648899999999998     48.661250000000010
H      47.573599999999999     50.761499999999998     47.522550000000010
H      46.441800000000001     45.875399999999999     47.539550000000006
H      50.229900000000001     50.148099999999999     48.071450000000013
H      48.839799999999997     45.238500000000002     47.672049999999999
H      45.150400000000005     50.160100000000000     46.990549999999999
H      44.520200000000003     47.668700000000001     47.210750000000004
H      51.479799999999997     48.450299999999999     48.837950000000006
H      50.726100000000002     45.743399999999994     49.009450000000001
