8

H      46.038499999999999     49.082549999999991     46.946099999999994
H      49.961500000000001     47.095550000000003     46.712100000000007
H      48.167400000000001     48.882049999999992     47.351800000000011
H      48.084000000000003     49.055149999999998     49.310699999999997
H      48.544100000000000     47.137050000000002     48.076200000000000
O      47.174399999999991     49.603549999999998     46.689300000000003
O      49.492099999999994     46.396450000000002     47.287100000000002
O      47.587599999999995     48.132049999999992     48.414600000000007
