18

C      47.586454999999987     48.422549999999994     47.194449999999989
C      48.136105000000001     47.360550000000003     48.038349999999994
C      48.688175000000001     48.829949999999997     46.248649999999998
C      49.538135000000011     46.985450000000000     47.912250000000000
C      46.252804999999995     48.749949999999998     47.493250000000003
C      47.468085000000002     46.985849999999999     49.250350000000012
C      50.034734999999998     48.532449999999997     46.337350000000001
C      50.603035000000006     47.437849999999997     47.180149999999998
C      45.393465000000006     48.229550000000003     48.498750000000001
C      46.121144999999999     47.394649999999999     49.492850000000004
H      48.503805000000000     49.807549999999999     45.643349999999998
H      49.963835000000003     46.192450000000001     48.692350000000005
H      46.143595000000005     49.736249999999998     47.126149999999996
H      47.847275000000010     46.413650000000004     49.950450000000004
H      50.900635000000008     48.937950000000001     45.739249999999998
H      51.463835000000003     47.159149999999997     47.307850000000002
H      44.536164999999997     48.644750000000002     48.640749999999997
H      45.709795000000000     47.278549999999996     50.356650000000002
