18

C      47.624249999999982     48.232199999999992     47.435349999999993
C      48.272049999999993     48.254700000000000     48.664250000000010
C      48.406449999999992     47.894900000000000     46.236150000000009
C      49.689049999999995     47.960999999999999     48.590350000000001
C      46.242549999999994     48.376799999999996     47.065850000000012
C      47.360149999999990     48.120200000000004     49.782250000000005
C      49.791249999999991     47.591500000000003     46.246950000000012
C      50.525049999999993     47.602300000000000     47.465550000000007
C      45.439149999999998     48.640700000000002     48.307650000000010
C      46.072749999999999     48.509599999999999     49.539050000000003
H      47.897849999999991     47.867399999999996     45.333550000000002
H      50.261849999999995     47.845199999999998     49.560350000000000
H      45.861549999999994     48.279199999999996     46.012750000000011
H      47.653049999999993     48.042200000000001     50.842449999999999
H      50.515450000000001     47.307800000000000     45.157550000000001
H      51.617249999999999     47.032000000000004     47.630549999999999
H      44.382750000000001     48.967999999999996     48.078050000000005
H      45.334049999999991     48.748200000000004     50.459050000000005
