18

C      47.420649999999995     48.048949999999991     47.293073999999990
C      48.255649999999996     48.326949999999997     48.418804000000009
C      46.523850000000003     46.806649999999998     47.412064000000001
C      48.114849999999997     47.511649999999996     49.652574000000001
C      46.879750000000008     49.021149999999999     46.282784000000007
C      49.155750000000005     49.543450000000000     48.314154000000002
C      46.434850000000004     45.907350000000001     48.438063999999997
C      47.239150000000002     46.405049999999996     49.567204000000004
C      47.845050000000008     50.162650000000006     46.233283999999998
C      48.973950000000009     50.356349999999999     47.176504000000008
H      45.883550000000007     46.785750000000000     46.697274000000007
H      48.809550000000009     47.637349999999998     50.414293999999998
H      45.945550000000004     49.249749999999999     45.980574000000004
H      50.285450000000004     49.866250000000001     48.554814000000007
H      45.714549999999996     44.956949999999999     48.527743999999998
H      47.294850000000004     45.985050000000001     50.547353999999999
H      47.649949999999997     50.992150000000002     45.452646000000001
H      49.595149999999997     51.043050000000001     46.698514000000003
