5

C      48.381450000000001     48.260249999999992     47.815199999999990
H      48.462150000000008     47.202349999999996     47.430999999999990
H      48.600450000000009     48.580150000000003     49.087200000000003
H      47.149650000000008     48.458050000000000     47.839899999999993
H      48.850349999999992     48.797650000000004     46.912799999999997
