18

C      48.019349999999996     47.272700000000000     48.636350000000000
C      47.767049999999998     48.094400000000007     47.328950000000006
C      46.860150000000004     47.115600000000001     49.470050000000001
C      46.377650000000003     48.591799999999992     46.945450000000008
C      49.487850000000009     47.103400000000008     48.801050000000004
C      48.805450000000008     48.413100000000000     46.385249999999999
C      45.564450000000008     47.722899999999996     49.228250000000003
C      45.433149999999998     48.591099999999997     48.026449999999997
C      50.425049999999999     47.549300000000002     47.813749999999999
C      50.053350000000009     48.047100000000000     46.492150000000009
H      46.937049999999999     46.731400000000008     50.454149999999998
H      46.571050000000000     49.268599999999992     46.143950000000004
H      49.812650000000005     46.788600000000002     49.751350000000002
H      48.351749999999996     48.742999999999995     45.545850000000002
H      44.948250000000002     47.334499999999991     50.076750000000004
H      44.563050000000004     48.804800000000000     47.373150000000010
H      51.436949999999996     47.434899999999999     47.935550000000006
H      50.850750000000005     48.419200000000004     45.824350000000010
