18

C      47.943950000000001     47.709149999999994     47.494900000000001
C      48.502650000000003     48.331049999999991     48.785800000000002
C      47.009349999999998     46.602750000000000     47.650100000000002
C      48.441149999999993     47.297849999999997     49.874000000000002
C      48.478250000000003     48.385549999999995     46.371699999999997
C      49.585549999999998     49.166349999999994     48.747000000000007
C      46.551249999999996     45.875749999999996     48.932800000000007
C      47.442750000000004     46.255949999999999     50.079100000000004
C      49.156850000000006     49.748449999999991     46.257500000000000
C      49.769950000000009     49.950049999999990     47.536000000000008
H      46.858450000000005     46.349049999999991     46.508400000000002
H      49.230750000000000     47.592249999999993     50.675699999999999
H      48.231849999999994     48.229349999999982     45.174100000000003
H      50.088149999999999     49.321049999999985     49.679600000000001
H      45.587550000000007     45.137950000000004     48.948799999999999
H      47.623249999999999     45.499549999999999     50.825899999999997
H      48.856850000000009     50.556749999999994     45.531399999999998
H      50.412449999999993     50.862049999999996     47.291000000000004
