5

C      47.841249999999995     48.000299999999996     47.986549999999994
H      48.740549999999999     48.390400000000000     47.417650000000002
H      48.402649999999994     47.174499999999995     48.737050000000004
H      47.259450000000001     47.534999999999997     47.262949999999996
H      47.290950000000002     48.825500000000005     48.620150000000002
