113

C      49.812849999999997     44.651464999999988     46.672464999999995
C      49.351750000000003     45.347864999999999     45.491195000000005
C      45.284550000000003     43.472864999999999     46.912365000000008
C      44.674550000000004     44.663164999999992     44.898345000000006
C      49.084949999999999     44.097364999999996     47.707165000000003
C      47.939250000000001     45.749764999999996     45.269545000000001
C      46.406350000000003     43.364665000000002     47.878664999999998
C      45.599750000000000     44.608364999999992     46.108895000000004
C      47.570650000000001     44.124865000000000     47.330665000000003
C      47.156550000000003     44.831164999999999     46.136315000000003
C      51.458350000000003     44.626165000000000     46.816865000000007
C      52.362549999999999     45.371465000000001     45.840905000000006
C      51.820850000000000     45.742064999999997     44.593275000000006
C      50.441650000000003     45.869365000000002     44.512875000000001
C      43.878050000000002     42.679564999999997     47.196965000000006
C      41.960250000000002     43.181865000000002     44.967105000000004
C      43.266050000000000     42.906965000000000     45.760285000000003
C      43.571449999999999     43.834064999999995     44.842645000000005
C      51.934549999999994     44.127364999999998     48.012365000000003
C      54.354750000000003     44.931265000000010     47.459065000000002
C      53.314950000000003     44.489165000000000     48.325365000000005
C      53.790950000000002     45.560064999999994     46.244795000000003
C      49.428850000000004     43.967664999999997     49.119865000000004
C      50.691650000000003     44.757064999999997     49.265065000000007
C      48.100450000000002     46.398965000000004     43.836185000000000
C      49.633050000000004     47.145065000000002     43.824995000000001
C      51.030950000000004     44.784765000000007     43.534565000000001
C      46.116150000000005     42.744664999999998     49.297364999999999
C      44.779650000000004     41.812564999999992     49.375665000000012
C      43.511450000000004     42.364765000000006     48.498564999999999
C      43.458050000000000     43.776165000000006     48.819165000000005
C      42.163950000000000     41.426864999999992     48.321165000000008
C      44.486650000000004     45.873464999999996     43.922415000000001
C      43.644150000000003     49.543364999999994     48.908465000000007
C      43.517949999999999     50.995165000000000     49.480365000000006
C      48.339350000000003     48.426365000000004     49.932665000000000
C      48.233250000000005     49.437665000000010     51.015065000000007
C      44.669750000000001     48.557265000000001     49.110264999999998
C      44.508850000000002     51.078964999999997     50.616264999999999
C      47.029949999999999     48.163065000000003     49.225265000000007
C      46.962150000000001     50.137465000000006     51.351264999999998
C      45.978549999999998     49.037665000000004     49.688765000000004
C      45.589849999999998     50.141565000000000     50.548665000000000
C      42.672650000000004     49.213265000000007     47.963865000000006
C      41.504750000000001     50.020965000000004     47.643265000000000
C      41.599850000000004     51.395664999999994     48.163865000000001
C      42.393550000000005     51.933364999999995     49.198464999999999
C      49.574950000000001     47.630965000000003     49.676065000000008
C      50.547950000000000     47.569065000000009     50.832065000000000
C      50.372849999999993     48.570165000000003     51.838565000000003
C      49.321050000000000     49.611365000000006     51.905964999999995
C      44.310350000000000     47.069465000000008     48.568665000000003
C      44.244850000000000     46.880465000000001     47.029465000000002
C      42.448150000000005     47.831464999999994     47.304365000000004
C      44.362549999999999     52.590864999999994     51.036165000000011
C      43.008749999999999     53.157565000000005     51.300165000000007
C      46.709750000000000     50.605464999999995     52.678665000000009
C      42.196050000000000     54.454565000000002     49.234665000000007
C      44.639050000000005     47.645364999999998     45.761435000000006
C      45.321650000000005     53.405164999999997     50.133664999999993
C      44.162150000000004     47.274064999999993     44.171185000000001
H      52.231249999999996     46.474564999999998     44.008735000000001
H      55.352950000000000     45.054765000000003     47.797965000000005
H      53.474250000000005     43.835565000000003     49.096164999999999
H      49.708649999999999     43.030365000000003     49.604664999999997
H      48.899450000000002     44.230365000000006     50.115665000000007
H      51.122250000000001     44.736665000000002     50.286065000000008
H      50.890850000000000     45.844065000000001     49.154765000000012
H      47.183850000000000     46.930265000000006     43.731255000000004
H      47.754249999999999     45.572765000000004     42.979765000000000
H      50.103549999999998     47.298964999999995     42.848335000000006
H      49.955549999999995     47.847665000000006     44.670165000000004
H      51.352950000000000     43.634865000000005     43.499725000000005
H      50.844550000000005     45.089765000000000     42.485135000000000
H      46.919650000000004     41.991065000000006     49.647064999999998
H      46.221450000000004     43.912165000000002     49.730665000000002
H      44.222149999999999     41.862465000000000     50.173765000000003
H      45.140450000000001     40.933364999999995     48.994165000000010
H      43.881250000000001     44.049665000000005     49.804465000000008
H      42.393050000000002     44.180665000000005     48.967564999999993
H      41.823850000000000     41.657364999999999     47.338165000000004
H      41.466750000000005     41.278764999999993     49.169665000000002
H      42.665450000000000     40.508835000000005     48.303664999999995
H      45.197250000000004     45.686965000000001     43.207365000000003
H      43.778950000000002     45.578164999999998     43.097845000000007
H      46.946750000000002     47.488465000000005     48.333765000000000
H      40.473350000000003     49.908765000000002     47.370765000000006
H      40.536250000000003     51.595965000000007     48.037465000000012
H      49.811650000000000     47.186864999999997     48.713665000000006
H      51.543450000000000     46.965164999999999     50.903565000000000
H      51.074850000000005     48.506365000000002     52.583365000000001
H      49.265650000000001     50.310865000000007     52.746165000000005
H      43.358350000000002     46.818164999999993     49.186265000000006
H      44.736950000000000     46.055265000000006     49.103065000000001
H      44.273650000000004     45.804465000000008     46.713665000000006
H      41.749150000000000     47.263064999999997     47.798865000000006
H      41.880250000000004     48.017664999999994     46.324365000000000
H      44.965350000000001     52.524164999999996     51.850665000000006
H      43.120550000000001     54.173365000000004     51.635865000000010
H      42.376650000000005     52.787864999999996     52.131065000000007
H      44.219850000000001     48.743264999999994     45.964984999999999
H      45.727550000000001     47.833865000000003     45.590565000000005
H      46.210750000000004     52.704165000000003     49.804865000000007
H      44.728850000000001     53.834464999999994     49.390565000000002
H      45.445950000000003     54.436565000000002     50.671465000000012
H      44.221350000000001     47.921364999999994     43.416295000000005
H      43.195750000000004     47.396765000000002     44.343254999999999
H      55.526649999999997     46.279565000000005     46.416965000000005
N      42.116050000000001     53.307964999999996     49.756164999999996
O      54.760050000000000     46.349564999999998     45.893165000000003
O      40.917750000000005     43.384964999999994     44.462845000000002
O      46.250050000000002     51.134865000000005     53.514865000000000
O      42.311050000000002     55.491164999999995     48.770865000000001
