66

C      51.029909999999994     43.959799999999994     51.065329999999975
C      45.750180000000000     51.719000000000008     45.295859999999983
C      50.246780000000001     44.083299999999994     49.723059999999982
C      46.448760000000000     50.476600000000005     44.907679999999985
C      50.433030000000002     44.892299999999992     52.302369999999989
C      45.544640000000001     51.775999999999996     46.772729999999981
C      49.341569999999997     45.141200000000012     49.465719999999983
C      46.838029999999996     49.412100000000002     45.826749999999983
C      49.603999999999999     46.899699999999996     52.858219999999982
C      48.786029999999997     48.018199999999993     52.599819999999987
C      46.192549999999997     50.654300000000006     49.291599999999981
C      46.892789999999998     48.943400000000004     51.166709999999973
C      48.098469999999999     47.558700000000002     48.607249999999986
C      49.720729999999996     46.105999999999995     51.811069999999980
C      45.879049999999999     50.842500000000001     47.777349999999984
C      48.188350000000000     48.232699999999994     51.240219999999987
C      46.866169999999997     49.360700000000001     49.657109999999982
C      49.179629999999996     46.152799999999999     50.445479999999982
C      46.843499999999999     49.795699999999997     47.265949999999982
C      48.415599999999998     47.412600000000005     50.013789999999986
C      47.384239999999998     48.944700000000005     48.337919999999983
C      48.706159999999997     45.204000000000008     47.992639999999980
C      48.170119999999997     46.461900000000000     47.634449999999980
C      52.055650000000000     43.033000000000001     51.246719999999989
C      51.749719999999996     41.735600000000005     50.259859999999982
C      51.057440000000000     41.881599999999999     49.020869999999981
C      50.305549999999997     43.066600000000001     48.612349999999985
C      49.766539999999999     43.253800000000005     47.229379999999985
C      49.073250000000002     44.519300000000001     46.813489999999980
C      45.199100000000001     52.646900000000002     44.230124999999980
C      45.973109999999998     52.623800000000003     42.976199999999970
C      46.443999999999996     51.387600000000006     42.399099999999997
C      46.427149999999997     50.431500000000000     43.466523899999984
C      51.102679999999999     44.709200000000003     53.602999999999987
C      52.076729999999998     43.482600000000005     53.749099999999984
C      52.868249999999989     43.262400000000000     52.461109999999984
C      44.558360000000000     53.087299999999999     47.070649999999979
C      44.278939999999999     54.225200000000001     46.109149999999985
C      44.637969999999996     53.942900000000002     44.587489999999981
C      42.966837499999997     53.556600000000003     44.512499999999982
H      47.145150000000001     48.274799999999999     45.533249999999981
H      49.932490000000001     46.850700000000003     53.934099999999980
H      48.535510000000002     48.760700000000000     53.449899999999985
H      45.539919999999995     51.115200000000002     50.087389999999985
H      47.732009999999995     46.853200000000001     46.626539999999984
H      52.313199999999995     40.734700000000004     50.316049999999983
H      51.046830000000000     41.068600000000004     48.453839999999985
H      49.921849999999999     42.512900000000002     46.593379999999982
H      48.701259999999998     44.761900000000004     45.881199999999986
H      45.886310000000002     53.396500000000003     42.295299999999962
H      46.721339999999998     51.404499999999999     41.294000000000018
H      46.279620000000001     49.314399999999999     43.328999999999979
H      51.158469999999994     45.267800000000001     54.351399999999984
H      51.809030000000000     42.436399999999999     53.977399999999982
H      52.611300000000000     43.416800000000002     54.705999999999982
H      53.659499999999994     44.081700000000012     52.220809999999979
H      53.396900000000002     42.311500000000002     52.486869999999982
H      45.280850000000001     52.944100000000006     48.137979999999985
H      43.544475999999996     52.777400000000000     47.294439999999980
H      43.322880999999995     54.686500000000002     46.157519999999984
H      44.623480000000001     55.265299999999996     46.470889999999983
H      45.027419999999999     54.778499999999994     44.235191999999984
H      42.340500000000006     54.328999999999994     44.935169999999985
H      42.801599999999986     53.601700000000008     43.463217299999982
H      43.039311699999999     52.288800000000002     44.751869999999982
O      46.080520000000000     48.762000000000000     52.018399999999993
