51

C      49.849199999999996     48.360599999999991     48.034849999999992
C      49.583700000000000     46.840499999999999     47.978950000000005
C      45.391700000000007     49.045499999999997     45.562150000000003
C      45.002299999999998     47.626699999999992     45.897350000000003
C      48.895800000000001     49.258199999999995     47.421950000000002
C      48.588300000000004     46.439399999999999     46.967050000000000
C      46.722500000000004     49.512599999999999     46.032850000000003
C      46.167700000000004     46.805599999999998     46.109349999999999
C      47.690100000000008     48.809099999999994     46.777950000000004
C      47.375100000000003     47.287699999999994     46.631850000000000
C      51.360199999999999     48.462499999999999     48.302950000000003
C      52.064300000000010     47.826099999999997     49.445149999999991
C      51.505500000000005     46.625200000000000     49.847850000000001
C      50.387700000000002     46.037699999999994     48.917050000000010
C      44.841700000000003     50.235099999999996     45.000350000000005
C      43.444499999999998     50.005999999999993     44.574450000000006
C      42.944800000000008     48.626599999999989     44.924650000000007
C      43.499800000000000     47.493599999999994     45.633550000000007
C      51.474200000000003     49.957799999999999     48.292450000000002
C      52.502500000000005     50.707299999999996     49.110950000000010
C      53.480700000000006     49.857800000000005     49.768050000000002
C      53.107100000000010     48.504399999999997     50.091149999999992
C      49.384900000000002     50.705899999999993     46.903649999999999
C      50.672500000000007     51.048600000000000     47.658349999999999
C      48.563800000000008     44.999199999999995     46.682050000000004
C      49.636900000000004     44.185399999999994     47.309150000000002
C      50.402000000000008     44.704199999999993     48.285549999999994
C      47.798099999999998     43.876599999999996     46.108950000000000
C      50.297599999999996     52.212299999999992     48.477850000000011
C      52.028300000000009     45.839700000000001     51.096350000000008
H      52.589100000000002     44.817499999999995     51.284550000000003
H      47.067500000000003     50.424199999999992     46.079950000000004
H      45.829900000000002     45.740400000000001     45.747250000000001
H      45.357800000000005     51.238199999999999     45.016449999999999
H      42.945700000000002     50.850599999999993     44.056249999999999
H      41.811900000000001     48.915199999999992     44.861849999999997
H      43.070600000000006     46.523199999999996     45.853950000000005
H      52.548000000000002     51.693499999999993     49.400750000000002
H      54.188099999999999     50.412399999999998     50.309449999999991
H      53.771499999999996     48.082999999999991     50.786750000000005
H      48.456000000000003     51.408899999999996     46.709650000000003
H      49.459700000000005     50.505699999999997     45.820349999999998
H      51.447800000000008     51.556800000000003     47.090450000000004
H      49.799600000000005     43.116099999999996     47.065550000000002
H      51.284399999999998     44.143299999999996     48.631950000000010
H      51.091299999999997     52.884899999999995     49.026050000000005
H      50.360599999999998     53.150100000000002     47.816450000000003
H      49.372700000000002     52.026999999999994     49.171950000000002
H      51.203900000000012     45.364699999999992     51.844050000000003
H      52.475600000000007     46.330599999999997     51.943750000000001
O      47.334200000000003     42.849899999999998     45.892450000000004
