19

C      48.330199999999991     48.160069999999990     47.420299999999990
C      49.148300000000006     47.134549999999997     48.330100000000002
C      46.881799999999998     46.684029999999993     45.839399999999998
C      49.324600000000004     45.968209999999992     47.687500000000000
C      48.397099999999995     49.568739999999998     47.769599999999997
C      49.511700000000005     47.644079999999995     49.612699999999990
C      48.051699999999997     47.338689999999993     46.196699999999993
C      48.760000000000005     45.945139999999995     46.315199999999997
C      48.996600000000015     49.961279999999995     49.212099999999992
C      49.617300000000000     49.066889999999994     49.974899999999991
H      46.664800000000000     46.792209999999997     44.770899999999997
H      46.012699999999995     46.276219999999995     46.467900000000000
H      49.846299999999999     45.077291999999993     48.133600000000001
H      48.290800000000004     50.102550000000001     46.937700000000000
H      49.959900000000005     46.782049999999991     49.990200000000002
H      48.472300000000004     47.751129999999996     45.111899999999999
H      48.421000000000006     45.066229999999997     45.766300000000001
H      49.120500000000007     50.933770000000003     49.521999999999998
H      49.987300000000005     49.362429999999996     51.229100000000003
