108

C      45.021049999999988     50.862699999999990     49.825399999999995
C      46.086150000000004     51.730400000000003     50.098700000000008
C      47.949050000000000     47.605500000000006     52.641599999999997
C      49.293750000000003     48.369799999999998     52.596699999999998
C      45.213650000000001     49.493600000000001     50.367000000000004
C      47.314350000000005     51.465800000000002     50.954599999999999
C      45.471550000000008     47.083299999999994     52.448499999999996
C      48.949050000000000     49.746499999999997     52.080399999999997
C      46.441749999999999     49.174300000000002     51.177599999999998
C      47.650449999999992     50.100200000000001     51.464299999999994
C      43.965049999999991     51.435600000000008     48.914000000000001
C      43.734949999999998     52.980800000000002     48.803100000000001
C      44.912049999999994     53.784599999999998     49.269999999999996
C      45.935350000000000     53.222499999999997     50.068500000000000
C      46.655650000000009     47.970200000000006     51.975800000000000
C      48.338949999999997     46.412599999999998     53.474800000000002
C      49.883949999999999     46.571700000000007     53.634399999999999
C      50.351849999999999     47.751300000000001     53.152200000000001
C      43.019049999999993     50.405200000000008     48.598199999999999
C      41.737949999999998     50.778700000000001     48.002899999999997
C      41.588349999999991     52.217700000000008     47.817700000000002
C      42.508650000000003     53.328900000000004     48.198000000000000
C      44.075249999999997     48.531900000000007     49.926699999999997
C      43.378149999999991     48.917900000000003     48.721600000000002
C      48.023550000000000     52.831000000000003     51.108300000000000
C      47.159549999999996     53.795500000000004     50.373300000000000
C      48.717050000000000     53.371300000000005     52.385700000000000
C      40.535150000000002     50.013099999999994     47.461500000000001
C      51.895650000000003     48.013099999999994     53.213799999999999
C      45.409649999999999     45.849999999999994     51.499200000000002
C      52.447249999999997     44.812899999999999     48.716699999999996
C      51.400850000000005     45.581599999999995     49.534100000000002
C      49.326850000000007     44.890100000000004     44.986699999999999
C      48.185850000000002     45.595900000000000     45.764499999999998
C      52.080150000000003     44.278900000000007     47.378699999999995
C      50.114850000000004     46.018100000000004     48.980800000000002
C      48.604849999999999     46.004500000000007     47.107699999999994
C      50.989350000000002     44.777900000000002     46.767399999999995
C      49.961950000000002     45.606300000000005     47.630400000000002
C      53.683549999999997     44.633399999999995     49.518499999999996
C      53.725450000000009     44.926299999999998     50.875900000000001
C      52.608050000000006     45.609700000000004     51.777599999999993
C      51.539249999999996     45.837500000000006     50.998099999999994
C      49.048649999999995     44.746700000000004     43.526299999999999
C      48.059150000000002     45.587599999999995     42.939899999999994
C      47.080349999999996     46.166600000000003     43.742599999999996
C      47.176649999999995     46.360299999999995     45.226399999999998
C      53.190749999999994     43.420299999999997     46.435000000000002
C      54.503750000000011     43.897800000000004     47.050600000000003
C      54.868250000000003     43.883800000000008     48.522999999999996
C      50.116450000000000     44.051199999999994     42.721599999999995
C      55.124650000000003     45.226100000000002     46.554800000000000
C      54.945549999999997     45.260900000000007     44.912900000000000
C      52.851950000000002     41.883499999999998     46.046300000000002
C      55.336749999999995     42.621399999999994     46.429699999999997
C      56.307749999999999     44.314300000000003     49.120599999999996
C      52.700749999999999     46.456199999999995     53.020899999999997
H      39.013549999999995     47.885900000000007     48.577500000000001
H      45.834450000000004     46.722899999999996     53.441800000000001
H      49.674449999999993     50.497900000000001     52.062500000000000
H      45.039950000000005     54.846900000000005     49.033699999999996
H      45.999749999999992     44.936800000000005     51.967100000000002
H      47.720350000000010     45.540000000000006     53.796199999999999
H      40.834750000000000     52.690399999999997     47.334099999999999
H      42.244649999999993     54.368700000000004     48.301200000000001
H      44.715549999999993     47.877899999999997     52.501400000000004
H      43.936949999999996     47.518100000000004     49.954499999999996
H      42.669449999999998     48.385300000000001     47.984099999999998
H      47.156450000000007     54.819500000000005     50.250399999999999
H      48.063749999999999     52.965800000000002     53.305700000000002
H      49.859949999999998     52.788499999999999     52.436199999999999
H      48.665550000000010     54.390300000000011     52.809700000000007
H      39.913150000000002     50.660399999999996     46.895799999999994
H      40.689750000000004     49.130700000000004     46.892399999999995
H      52.139849999999996     48.840999999999994     52.597999999999999
H      52.193150000000003     48.565700000000007     54.290700000000001
H      50.469549999999998     45.696799999999996     54.038499999999999
H      44.345950000000002     45.397199999999998     51.589999999999989
H      45.892150000000001     46.128000000000000     50.528999999999996
H      49.279849999999996     46.518600000000006     49.685000000000002
H      48.170249999999996     46.700100000000006     47.575400000000002
H      54.623249999999999     44.748699999999999     51.317700000000002
H      50.890050000000002     46.617999999999995     51.670899999999989
H      48.093049999999991     46.023700000000005     41.709299999999999
H      46.452750000000009     46.951400000000007     43.178799999999995
H      46.672749999999994     47.253000000000000     45.535699999999999
H      53.299650000000000     44.065700000000007     45.540799999999997
H      54.786550000000005     42.887699999999995     48.729300000000002
H      51.131350000000012     43.859200000000001     44.681200000000004
H      54.483649999999997     45.950299999999999     46.992400000000004
H      56.271450000000002     45.293599999999998     46.852100000000000
H      53.978650000000002     44.931899999999999     44.706400000000002
H      54.607150000000004     46.373500000000007     44.504800000000003
H      55.417950000000005     44.570000000000007     44.067899999999995
H      52.684550000000002     42.141300000000001     44.910200000000003
H      52.251150000000010     41.153099999999995     46.573799999999999
H      53.809649999999991     41.466899999999995     45.647199999999998
H      55.896050000000002     42.772900000000007     45.510500000000000
H      56.032750000000007     42.381600000000006     47.167000000000002
H      55.004050000000007     41.537199999999999     46.758699999999997
H      56.972549999999998     43.617999999999995     49.918300000000002
H      56.986450000000005     44.577200000000005     48.453800000000001
H      56.097149999999999     45.352100000000007     49.668700000000001
H      52.618549999999999     45.683099999999996     53.846800000000002
H      53.790449999999993     46.505099999999999     53.471000000000004
N      50.515749999999997     44.526499999999999     45.457000000000001
O      51.079250000000002     43.997799999999998     42.193100000000001
S      39.612749999999991     49.177199999999999     49.103299999999997
