18

C      48.029754999999994     48.769700000000000     48.540299999999995
C      47.374275000000004     47.793100000000003     47.599499999999999
C      49.305545000000002     48.203300000000006     48.855099999999993
C      47.488475000000001     46.455400000000004     47.142600000000002
C      47.652875000000002     50.053199999999997     49.296899999999994
C      46.244365000000002     48.431999999999995     46.949800000000003
C      49.706315000000011     46.905099999999997     48.410699999999999
C      48.811344999999996     46.020900000000005     47.699800000000003
C      46.510145000000001     50.476099999999995     48.447099999999999
C      45.943815000000001     49.784799999999997     47.270499999999998
H      50.310125000000006     48.687599999999996     49.411500000000004
H      46.947435000000006     45.854199999999999     46.423299999999998
H      48.379655000000007     50.594299999999997     49.850499999999997
H      45.678235000000001     47.963799999999999     46.149500000000003
H      50.702655000000000     46.553099999999993     48.787199999999999
H      49.090305000000008     45.061900000000001     47.829099999999997
H      45.627255000000005     50.938099999999999     48.678100000000001
H      45.297345000000000     50.201100000000004     46.470799999999997
