19

C      47.446199999999990     48.512649999999994     48.193399999999997
C      48.402099999999990     47.366949999999996     48.370100000000001
C      47.387699999999995     48.324149999999996     46.773900000000005
C      49.111800000000002     46.566650000000003     47.336700000000000
C      46.832899999999995     49.478749999999998     49.129799999999996
C      48.760800000000003     47.267049999999998     49.806999999999995
C      48.467699999999994     46.773750000000000     45.039600000000000
C      48.217500000000001     47.258350000000000     46.451900000000002
C      47.393900000000002     49.350349999999999     50.419199999999996
C      48.226699999999994     48.209150000000001     50.721300000000006
H      48.076700000000002     45.803049999999999     44.762400000000007
H      47.037300000000002     49.031050000000000     46.015999999999998
H      49.997799999999998     45.877749999999999     47.048899999999996
H      46.002200000000002     50.196950000000001     48.843399999999995
H      49.653999999999996     46.684750000000001     50.024899999999995
H      49.614499999999992     47.000250000000001     44.710699999999996
H      47.862099999999998     47.381049999999995     44.267400000000002
H      47.192099999999996     50.181850000000004     51.174600000000005
H      48.744699999999995     47.974449999999997     51.732599999999998
