18

C      47.844849999999994     47.314799999999991     47.295349999999999
C      48.309450000000005     48.674000000000007     47.600150000000006
C      46.858749999999993     46.959900000000005     48.335050000000003
C      47.644649999999992     49.418500000000009     48.771650000000001
C      49.121149999999993     46.583600000000004     46.820349999999998
C      49.310150000000000     49.602500000000006     47.084849999999996
C      45.723949999999995     47.884100000000004     48.519750000000009
C      46.261050000000004     49.072700000000012     49.096150000000002
C      50.157050000000005     47.332600000000014     46.352150000000002
C      50.293450000000000     48.947200000000009     46.297850000000004
H      46.769349999999996     45.877000000000010     48.763750000000009
H      48.300450000000005     50.220399999999998     48.878949999999996
H      49.363849999999992     45.424999999999997     46.822449999999996
H      49.405350000000006     50.575000000000003     47.412050000000001
H      44.750549999999997     47.692400000000006     48.743550000000006
H      45.834449999999997     49.709700000000012     49.966950000000004
H      50.989250000000006     46.746300000000005     46.033049999999996
H      51.249450000000003     49.476100000000002     46.049250000000008
