18

C      48.440100000000001     47.352999999999994     47.601199999999992
C      47.298000000000009     48.307800000000000     47.950600000000001
C      49.384400000000007     47.591799999999999     46.644800000000004
C      47.341600000000007     49.481299999999997     47.190899999999999
C      48.887800000000006     46.304600000000001     48.533400000000007
C      46.559699999999999     48.184900000000006     49.241100000000010
C      49.079300000000011     48.574400000000004     45.706800000000001
C      48.061600000000006     49.594500000000004     45.958900000000000
C      47.879100000000001     46.100400000000000     49.546700000000008
C      46.880400000000002     47.023800000000001     50.061500000000002
H      50.129899999999999     46.637300000000003     46.260199999999998
H      46.685700000000004     50.506599999999999     47.552100000000003
H      49.889800000000001     45.674500000000002     48.500900000000001
H      45.870100000000001     49.091400000000000     49.606600000000000
H      49.718100000000000     48.746100000000006     44.810200000000002
H      48.052800000000012     50.498799999999996     45.294600000000003
H      48.156900000000000     45.493400000000001     50.387500000000003
H      46.494900000000008     46.808199999999999     51.189799999999998
