18

C      48.581549999999993     47.838149999999992     47.762199999999993
C      47.311950000000010     48.496650000000002     48.377099999999999
C      48.598650000000006     47.067450000000008     46.516999999999996
C      46.391150000000010     48.632649999999998     47.362600000000000
C      49.602950000000007     47.603549999999998     48.820999999999998
C      47.277950000000004     48.971649999999997     49.712099999999992
C      47.379249999999999     47.250250000000008     45.543099999999995
C      46.499450000000010     48.249350000000007     45.875199999999992
C      49.529450000000011     47.794550000000001     50.283599999999993
C      48.398450000000011     48.591850000000008     50.532799999999995
H      49.380150000000015     46.419150000000002     46.299599999999998
H      45.513649999999998     49.199150000000003     47.725700000000003
H      50.486350000000002     47.226450000000000     48.612099999999998
H      46.465450000000004     49.580849999999998     49.999599999999987
H      47.545050000000003     46.843950000000007     44.490200000000002
H      45.822250000000011     48.564149999999998     44.929400000000001
H      50.390050000000002     47.903250000000000     50.992399999999989
H      48.793950000000009     48.908550000000005     51.509799999999998
