55

C      46.601799999999997     49.415149999999990     49.060749999999992
C      47.311500000000002     50.748550000000009     48.952050000000000
C      52.697899999999997     43.825950000000006     45.280349999999999
C      47.438700000000004     48.226150000000004     48.692949999999996
C      48.657900000000005     50.869750000000010     48.404749999999993
C      52.210000000000001     45.056750000000008     45.784949999999995
C      49.454900000000002     46.869349999999997     48.006349999999998
C      50.773199999999996     49.376850000000005     47.581750000000000
C      48.834800000000008     48.209750000000000     48.076449999999994
C      49.363000000000007     49.627049999999997     48.007449999999992
C      50.759400000000007     46.864550000000008     47.168149999999997
C      51.268900000000009     48.164150000000006     46.991249999999994
C      45.216299999999997     49.410049999999998     49.626149999999996
C      44.392600000000009     50.622750000000011     49.906849999999991
C      44.961599999999997     51.879249999999999     49.521850000000001
C      46.371299999999998     51.988350000000011     49.114949999999993
C      44.672400000000003     48.119450000000001     50.084750000000000
C      43.320100000000004     48.241450000000000     50.741050000000001
C      42.605399999999996     49.505450000000010     50.999349999999993
C      43.069200000000002     50.681750000000008     50.584949999999992
C      45.478900000000003     46.918350000000004     49.758849999999995
C      46.775300000000009     46.998150000000010     49.169950000000000
C      47.316200000000002     45.572650000000010     48.530049999999989
C      48.889400000000002     45.635950000000008     48.552749999999989
C      49.479400000000005     52.070350000000005     48.409449999999993
C      48.731500000000004     53.450150000000008     48.438049999999990
C      47.435600000000001     53.080150000000003     49.363149999999990
C      53.481100000000005     45.281850000000006     44.853749999999991
C      44.945299999999996     45.526750000000007     50.190649999999991
C      51.650600000000004     45.732950000000002     47.069849999999988
H      52.191899999999997     48.464650000000006     46.421549999999996
H      51.217500000000008     50.511850000000010     47.466249999999988
H      44.359600000000007     52.696750000000009     49.689949999999996
H      42.961599999999997     47.228050000000010     50.948049999999995
H      41.521300000000004     49.264850000000010     51.283850000000001
H      42.366800000000005     51.533150000000006     50.595450000000000
H      46.986799999999995     45.215950000000007     47.634949999999989
H      47.381099999999996     44.753750000000011     49.319949999999992
H      49.214500000000008     44.808750000000003     47.765049999999988
H      49.352899999999998     45.228050000000010     49.573049999999995
H      50.156600000000005     52.086050000000000     47.534849999999992
H      50.194499999999998     52.027250000000009     49.183849999999993
H      49.261400000000002     54.226050000000001     48.761049999999997
H      48.282800000000002     53.654150000000001     47.529249999999990
H      47.842599999999997     53.053049999999999     50.368449999999996
H      46.792400000000008     53.882850000000005     48.870750000000001
H      53.601800000000004     46.446350000000010     44.716149999999999
H      54.478699999999996     45.012050000000002     45.197249999999997
H      44.005299999999998     45.634650000000008     50.797149999999988
H      45.688400000000009     44.876450000000006     50.849849999999989
H      51.479700000000001     45.115750000000006     48.016249999999999
H      52.629100000000001     46.025649999999999     47.428049999999999
H      45.052900000000001     44.746650000000002     49.513849999999991
H      53.190500000000007     41.773949999999999     45.213650000000001
N      52.524000000000008     42.610450000000000     45.466849999999994
