18

C      48.224049999999991     47.422559999999990     48.291049999999984
C      48.369050000000001     48.893810000000002     48.198049999999995
C      49.132050000000007     46.443030000000007     47.868849999999995
C      49.116450000000000     49.347790000000003     47.039749999999998
C      47.285049999999998     46.992829999999998     49.231949999999998
C      47.592050000000000     49.634840000000011     49.144549999999995
C      49.821950000000001     47.076040000000006     46.686149999999998
C      49.939750000000004     48.404520000000005     46.268050000000002
C      46.258550000000000     47.833120000000008     49.928849999999997
C      46.348249999999993     49.217100000000016     49.862049999999996
H      49.193650000000005     45.269919999999999     48.155850000000001
H      48.890450000000001     50.409290000000013     46.635750000000002
H      47.064650000000000     45.961539999999999     49.076149999999998
H      47.554349999999999     50.730080000000001     49.443150000000003
H      50.664649999999995     46.216630000000009     46.628850000000000
H      50.532250000000005     48.587560000000011     45.449349999999995
H      45.335350000000005     47.592420000000004     50.417550000000006
H      45.805949999999996     49.939730000000012     50.550650000000005
