18

C      47.952299999999994     47.346350000000001     47.927799999999991
C      47.920100000000005     48.735250000000008     48.016999999999996
C      48.054500000000004     46.735349999999997     49.286900000000003
C      47.324799999999996     49.410049999999998     49.134100000000004
C      48.040000000000006     46.536850000000001     46.813100000000006
C      48.622799999999998     49.190849999999998     46.795000000000002
C      47.685200000000009     47.405150000000006     50.445300000000003
C      47.058800000000005     48.790250000000000     50.450500000000005
C      48.148899999999998     47.312049999999999     45.541100000000000
C      48.745600000000010     48.434449999999998     45.485299999999995
H      48.367500000000007     45.607550000000003     49.314000000000007
H      47.267800000000008     50.495449999999991     49.328900000000004
H      48.090400000000002     45.504550000000009     46.719099999999997
H      49.265900000000002     50.179850000000002     46.867599999999996
H      47.685299999999998     46.920850000000002     51.376599999999996
H      46.734099999999998     49.106049999999996     51.327700000000007
H      47.950199999999995     46.686050000000009     44.623400000000004
H      48.965400000000002     49.140549999999990     44.674499999999995
