13

C      47.185349999999985     45.856549999999999     47.702299999999994
C      47.532849999999989     46.634649999999993     46.558999999999997
C      47.853249999999996     48.078850000000003     46.957499999999996
C      48.639449999999989     48.769049999999993     49.235600000000005
C      48.984349999999999     50.144450000000006     48.901799999999994
C      48.099150000000002     47.731250000000003     48.463899999999995
C      47.445649999999993     46.464249999999993     48.998499999999993
H      47.725249999999996     45.866450000000000     45.709199999999996
H      48.324949999999994     48.813450000000003     46.341400000000007
H      48.531349999999996     48.494249999999994     50.290800000000004
H      47.131250000000001     46.308949999999996     50.013300000000001
H      47.015650000000001     44.791650000000004     47.555000000000007
O      48.884749999999990     51.208349999999996     48.524799999999999
