18

C      48.592249999999993     47.794849999999990     47.630999999999993
C      47.500950000000003     48.462249999999997     48.552399999999999
C      48.856150000000000     46.371449999999996     47.673299999999998
C      47.126949999999994     47.654649999999997     49.704899999999995
C      48.939349999999990     48.718750000000000     46.562399999999997
C      47.144250000000000     49.799550000000011     48.416300000000000
C      48.277249999999995     45.744049999999994     48.725700000000003
C      47.431250000000006     46.269250000000000     49.758399999999995
C      48.556449999999998     50.007849999999991     46.193899999999999
C      47.774950000000004     50.497349999999997     47.295699999999997
H      49.537350000000004     45.928849999999997     46.767799999999994
H      46.372050000000002     48.259349999999998     50.193299999999994
H      49.627949999999998     48.386750000000006     45.799199999999999
H      46.553049999999999     50.311750000000004     49.063900000000004
H      48.429050000000004     44.622549999999997     49.070099999999996
H      46.769750000000002     45.711849999999998     50.379800000000003
H      48.782749999999993     50.970849999999984     45.620199999999997
H      47.333349999999996     51.377450000000003     47.362200000000001
