6

C      48.218349999999987     47.382800000000003     47.930699999999987
C      48.045050000000003     48.751899999999992     47.960599999999992
H      48.185649999999995     46.659900000000007     47.053999999999995
H      48.496850000000009     46.755200000000002     48.871400000000001
H      48.090949999999992     49.248999999999995     48.973400000000005
H      47.503149999999991     49.340099999999993     47.026599999999995
