34

C      45.596549999999993     46.523367999999991     49.390299999999996
C      46.554949999999991     45.792967999999995     50.255200000000002
C      44.194249999999997     46.330567999999992     49.898900000000012
C      46.513049999999993     44.842067999999990     51.279700000000005
C      46.075849999999988     47.188167999999997     48.092800000000011
C      47.989649999999997     46.036167999999996     49.736000000000004
C      44.132949999999994     45.315867999999988     50.976600000000005
C      45.217550000000003     44.748867999999995     51.816400000000002
C      47.395849999999996     47.252767999999996     47.688100000000006
C      48.401250000000005     46.593067999999995     48.558900000000008
C      49.718850000000003     50.011667999999993     46.446700000000007
C      49.165449999999993     50.337367999999991     45.161799999999999
C      49.147250000000000     49.020367999999998     47.262600000000006
C      48.005150000000000     49.659067999999998     44.808000000000007
C      50.848849999999999     50.703067999999995     47.204700000000003
C      50.063549999999992     51.101768000000000     44.415199999999999
C      48.016449999999992     48.172667999999994     46.782700000000006
C      47.300250000000005     48.666267999999995     45.588200000000001
C      51.757449999999992     51.249367999999997     46.246400000000008
C      51.381349999999998     51.373719999999999     44.912000000000006
H      43.479649999999992     46.887767999999987     49.344900000000010
H      47.542349999999999     44.466667999999991     51.812300000000008
H      45.194450000000003     47.652767999999988     47.683500000000009
H      48.909350000000003     45.666567999999991     50.310800000000015
H      43.173950000000005     45.337167999999998     51.237500000000011
H      44.973450000000000     44.056167999999992     52.559899999999999
H      49.296649999999985     46.715067999999995     48.266100000000009
H      49.525750000000002     48.711967999999992     48.192700000000002
H      47.395250000000004     50.130767999999996     43.979900000000001
H      50.957949999999997     50.513467999999996     48.276700000000005
H      49.682249999999996     51.416083000000008     43.440100000000001
H      46.421650000000000     48.355967999999997     45.010300000000001
H      52.826049999999995     51.560968000000003     46.600100000000012
H      52.231349999999992     51.943832000000008     44.417400000000001
