6

C      48.418299999999988     48.347649999999987     48.306799999999996
C      47.382800000000003     47.692449999999994     47.567099999999996
H      48.660800000000009     49.279250000000005     48.051900000000003
H      48.941900000000004     47.854749999999996     49.180099999999996
H      47.201899999999995     46.720749999999995     47.841799999999992
H      47.058099999999996     48.280850000000001     46.819900000000004
