5

C      48.038970199999980     47.879349999999995     48.166299999999993
H      47.244111500000002     48.315849999999998     49.016300000000001
H      48.704279499999998     47.288849999999996     48.708300000000008
H      48.267865499999999     47.483149999999995     46.983699999999999
H      48.755888499999998     48.711150000000004     47.784700000000001
