8

C      47.449199999999990     48.621399999999994     48.491349999999997
C      48.339699999999993     47.556600000000003     47.511650000000003
H      46.593800000000002     49.010099999999994     48.030249999999995
H      48.124600000000001     49.425100000000000     48.525949999999995
H      46.969299999999990     48.064599999999999     49.498949999999994
H      47.976799999999997     47.624200000000002     46.501050000000006
H      47.883899999999997     46.574900000000000     47.801050000000004
H      49.406199999999998     47.777099999999990     47.418750000000003
