18

C      48.158249999999995     48.628099999999989     47.367699999999992
C      47.940049999999999     47.379999999999995     48.124499999999998
C      49.507650000000005     49.051800000000014     47.471599999999995
C      48.907950000000007     46.299499999999995     48.462299999999999
C      47.107750000000003     49.640400000000000     47.099599999999995
C      46.390250000000002     47.300899999999999     48.445000000000007
C      50.538750000000000     48.264099999999999     47.873999999999995
C      50.191949999999999     46.776399999999995     48.277500000000003
C      45.769849999999998     49.402799999999999     47.066800000000001
C      45.427050000000001     48.165800000000004     47.876000000000005
H      49.765250000000002     50.066400000000002     47.079899999999995
H      48.762650000000001     45.266599999999997     48.625599999999999
H      47.608350000000002     50.733400000000003     46.769500000000001
H      46.627150000000000     46.700900000000004     49.403700000000001
H      51.530949999999997     47.906900000000007     48.138499999999993
H      51.270649999999996     46.470299999999995     48.213800000000006
H      45.022349999999996     50.018000000000001     46.596299999999999
H      44.469050000000003     47.980100000000007     48.244799999999998
