18

C      48.248599999999996     47.746694999999995     47.259000000000000
C      47.832000000000001     48.296334999999999     48.656599999999997
C      49.325850000000010     48.358625000000004     46.587299999999999
C      48.276409999999991     49.581254999999999     49.120800000000003
C      47.435380000000002     46.452005000000000     46.873300000000000
C      47.018720000000002     47.515945000000002     49.520699999999991
C      49.810719999999996     49.766104999999996     46.993899999999996
C      49.084699999999991     50.298564999999996     48.147999999999996
C      46.753509999999999     45.612924999999997     47.852000000000004
C      46.453000000000003     46.238424999999999     49.102199999999996
H      49.884160000000001     47.938054999999999     45.665400000000005
H      48.033130000000000     50.178325000000001     49.971599999999995
H      48.108049999999999     46.097835000000003     46.206199999999995
H      46.763820000000003     47.965414999999993     50.334599999999995
H      50.277589999999996     50.238374999999998     46.323599999999999
H      49.087550000000000     51.490425000000002     48.230800000000002
H      46.339509999999997     44.509574999999998     47.669700000000006
H      45.722410000000004     45.562764999999999     49.642699999999991
