18

C      48.821999999999996     48.270499999999991     48.381099999999996
C      47.353000000000009     48.089900000000000     48.242699999999999
C      49.472200000000001     47.199000000000005     48.727899999999991
C      46.590400000000002     46.981500000000004     48.817399999999992
C      49.321100000000001     49.534300000000002     47.637000000000000
C      47.080700000000007     50.395600000000002     47.352499999999992
C      48.823099999999997     45.885700000000000     48.923599999999993
C      47.417800000000000     45.805300000000003     49.053699999999992
C      48.565200000000004     50.519200000000012     47.145099999999999
C      46.507000000000005     49.274900000000002     48.012699999999995
H      46.537700000000001     51.185099999999998     46.785299999999992
H      50.566400000000002     47.298400000000001     48.531300000000002
H      45.433599999999998     46.842600000000004     48.956299999999999
H      50.346400000000003     49.678899999999999     47.218099999999993
H      49.357500000000002     45.281700000000001     49.550399999999996
H      47.051699999999997     44.814900000000002     49.147999999999996
H      49.124300000000005     51.162400000000005     46.449600000000004
H      45.481899999999996     49.240800000000000     48.461299999999994
