104

C      51.787364999999994     46.381599999999992     46.590280300000003
C      52.417765000000010     45.256399999999999     47.375480000000010
C      56.030764999999995     47.452100000000002     44.082149999999999
C      56.734164999999997     46.187200000000004     44.715850000000017
C      52.574165000000001     47.158400000000000     45.522250000000014
C      53.874765000000004     45.320599999999999     47.199706000000006
C      54.591064999999993     47.844399999999993     44.298850000000016
C      56.003864999999998     45.588399999999993     45.857250000000008
C      53.850664999999999     46.886499999999984     45.213350000000020
C      54.689465000000006     46.015000000000001     46.052049999999994
C      50.504865000000002     46.700499999999991     47.145518000000010
C      49.723365000000001     45.925699999999992     48.133229999999998
C      50.552465000000005     44.725699999999989     48.548130000000000
C      51.794465000000002     44.120999999999995     48.150649999999999
C      57.910365000000006     43.484499999999997     45.097050000000010
C      58.496865000000007     44.706899999999990     44.591250000000002
C      56.667465000000000     47.992299999999986     42.793750000000017
C      58.068964999999999     45.956400000000002     44.098550000000017
C      51.888365000000000     48.444099999999992     45.342650000000020
C      51.193165000000000     49.049999999999997     46.571871700000003
C      49.771765000000002     48.095600000000005     46.702849000000001
C      54.606765000000003     44.482399999999998     48.208990000000000
C      54.036364999999996     43.865399999999994     49.353970000000004
C      52.435364999999997     43.763999999999996     49.566910000000007
C      48.610765000000001     48.925500000000000     47.449660000000009
C      50.949365000000000     48.562299999999993     44.276049999999998
C      50.726365000000001     50.575499999999991     46.518950000000018
C      51.726965000000000     42.707399999999993     47.551002999999994
C      42.677065000000006     48.358699999999999     52.338310000000007
C      46.081364999999998     52.763099999999994     47.383103000000006
C      43.979565000000001     48.012699999999995     51.967770000000002
C      46.342165000000001     51.388800000000003     47.592069999999993
C      41.898665000000001     49.514399999999995     51.832470000000001
C      44.761665000000001     53.053799999999995     47.728389999999990
C      44.454465000000006     48.653699999999986     50.728049999999996
C      45.562265000000004     50.178199999999990     47.947760000000002
C      41.879465000000003     51.311199999999999     49.991230000000002
C      42.699665000000003     52.138499999999993     49.043040000000005
C      42.461465000000004     50.184699999999992     50.593280000000007
C      44.043365000000001     52.121700000000004     48.617980000000003
C      43.825065000000002     49.858299999999986     50.031540000000007
C      44.458665000000003     50.604399999999984     48.865819999999999
C      45.534465000000004     48.149400000000000     49.751910000000009
C      46.398465000000002     49.131999999999991     48.767979999999994
C      40.699365000000000     50.181299999999993     52.392560000000003
C      39.621965000000003     50.418199999999985     51.382469999999998
C      40.326664999999998     51.471599999999995     50.326340000000002
C      38.256464999999999     50.954999999999984     51.527770000000004
C      47.289165000000004     48.261600000000001     47.917130000000000
C      36.893265000000000     50.096099999999993     51.119630000000001
C      39.817865000000005     49.226799999999997     53.434620000000010
C      44.441565000000004     46.998899999999992     49.056790000000007
H      54.157964999999997     48.688999999999993     43.946150000000003
H      56.521665000000006     45.122099999999989     46.690848000000003
H      48.531865000000003     45.833399999999997     48.059380000000004
H      49.854365000000001     44.253099999999989     49.334329999999994
H      59.664065000000001     44.830399999999997     44.125449999999987
H      58.719765000000002     46.244699999999995     43.274050000000017
H      52.587364999999998     49.214500000000001     45.076549999999997
H      51.956965000000004     48.987699999999990     47.233632000000000
H      49.380865000000007     47.948499999999996     45.630949999999999
H      55.631765000000001     44.496099999999998     48.074359999999999
H      54.838065000000000     43.241599999999991     49.889530000000008
H      52.289364999999997     44.389200000000002     50.394820000000010
H      52.283965000000002     42.834099999999992     49.894379999999998
H      48.223265000000005     49.786900000000003     46.683621000000002
H      49.045565000000003     49.668700000000001     48.254410000000007
H      50.147565000000000     47.784700000000001     44.326149999999998
H      51.375064999999999     48.152599999999993     43.208650000000034
H      50.310265000000001     49.486899999999991     44.374350000000021
H      49.999765000000004     50.795400000000001     47.420372999999998
H      51.788265000000003     51.075899999999990     46.407750000000021
H      50.444265000000001     51.391300000000001     45.748849999999990
H      51.391764999999999     42.889699999999991     46.486050000000034
H      52.821265000000004     42.795099999999991     47.461700000000008
H      51.100265000000000     42.028700000000001     48.043660000000003
H      42.273965000000004     48.038899999999998     53.292420000000007
H      46.851965000000000     53.525499999999994     47.375828999999996
H      47.322465000000001     50.952100000000002     47.738039999999998
H      44.280965000000002     53.971299999999999     47.423402000000010
H      41.866365000000002     52.779299999999992     48.811259999999990
H      46.546765000000001     47.648299999999992     50.117990000000006
H      47.031965000000007     49.785399999999996     49.646699999999996
H      41.038865000000001     50.993399999999994     53.057869999999994
H      39.623065000000004     49.549999999999997     50.557330000000007
H      40.176565000000004     52.379000000000005     50.854250000000008
H      39.679565000000004     51.335199999999986     49.474449999999990
H      38.195565000000002     51.615899999999996     52.400170000000003
H      38.180365000000002     51.701099999999997     50.676050000000004
H      46.472065000000001     48.046499999999995     47.193350000000009
H      47.472664999999999     47.269599999999997     48.405580000000000
H      37.239665000000002     49.598799999999997     50.232630000000000
H      36.578485000000001     49.714399999999998     52.366889999999998
H      36.335934999999999     50.602999999999994     50.271920000000009
H      40.583865000000003     48.762500000000003     53.907790000000006
H      39.346065000000003     49.895599999999988     54.159649999999999
H      39.491965000000000     48.340599999999995     52.779960000000003
H      43.790365000000001     46.988900000000001     48.083399999999997
H      45.130965000000003     46.081999999999994     48.796289999999999
H      43.817264999999999     46.351399999999998     49.827429999999993
H      44.285564999999998     46.486800000000002     53.441059999999993
O      57.407765000000005     42.584400000000002     45.493650000000002
O      56.808865000000004     48.547199999999989     41.840350000000001
O      44.790565000000001     47.380299999999991     52.898240000000001
