10

C      48.802999999999990     48.575549999999993     48.961855000000000
C      47.467500000000001     48.590949999999999     48.202465000000004
C      47.783999999999992     47.383949999999999     46.998781000000008
H      48.512199999999993     48.657550000000008     49.825675000000004
H      49.352300000000000     47.622949999999996     49.110365000000002
H      46.647700000000000     48.140149999999998     48.669134999999997
H      46.975600000000000     49.483449999999998     47.728854999999996
H      46.916599999999995     47.046450000000000     46.499446399999997
H      48.163399999999996     46.516550000000002     47.471405000000004
H      48.387400000000000     47.872650000000000     46.174324999999996
