20

C      48.101499999999994     48.138499999999993     47.476249999999986
C      47.928100000000001     48.227299999999993     48.980549999999994
C      48.863299999999995     46.888700000000000     47.222149999999999
C      47.890500000000003     47.206099999999999     50.008150000000001
C      48.612200000000001     49.405900000000010     47.018749999999997
C      47.463100000000004     49.435499999999998     49.776349999999994
C      48.668500000000002     45.861100000000000     47.999049999999997
C      48.144300000000001     45.920900000000003     49.404449999999997
C      47.210599999999999     49.069699999999990     46.594549999999998
C      48.411500000000004     50.027600000000000     45.679749999999999
H      46.459900000000005     48.649300000000004     46.023550000000000
H      47.269199999999998     50.384899999999995     49.430949999999996
H      49.488799999999998     46.793799999999997     46.346549999999993
H      47.511000000000003     46.876300000000001     51.156649999999999
H      49.540099999999995     49.589400000000005     47.672249999999991
H      47.238799999999998     49.181800000000003     50.925349999999995
H      49.219999999999999     44.948799999999999     47.750550000000004
H      47.844100000000005     45.029800000000002     49.762850000000000
H      48.917400000000001     49.701200000000007     44.843350000000001
H      48.249099999999999     51.051200000000001     45.652050000000003
