56

C      50.637099999999997     42.724049999999991     51.977849999999997
C      51.360900000000001     43.627549999999999     51.223950000000002
C      46.817400000000006     45.921450000000007     46.716650000000001
C      47.753399999999999     52.766350000000003     48.245050000000006
C      47.945499999999996     46.089050000000000     47.779449999999997
C      48.647199999999998     51.904750000000007     49.030550000000005
C      45.922600000000003     47.137349999999998     46.382050000000007
C      46.860600000000005     52.209750000000000     47.306250000000006
C      48.063200000000009     47.320949999999996     48.597450000000009
C      48.765299999999996     50.457049999999995     49.183550000000011
C      45.720200000000006     49.834249999999997     47.160650000000004
C      46.033500000000004     48.406050000000008     47.178550000000001
C      46.880899999999997     50.701450000000008     47.443950000000001
C      47.210999999999999     48.448049999999995     47.912250000000000
C      47.711900000000000     49.892150000000001     48.248350000000002
C      49.141100000000009     47.898449999999997     49.608450000000005
C      49.091000000000008     49.207850000000008     50.124350000000007
C      46.714300000000009     44.730249999999998     45.979250000000008
C      47.803899999999999     43.669349999999994     46.235550000000003
C      48.789500000000004     43.586349999999996     47.270550000000000
C      48.986599999999996     45.111150000000009     47.905349999999999
C      50.030900000000003     45.468950000000007     48.800449999999998
C      50.117800000000003     46.731049999999996     49.431650000000005
C      45.717600000000004     47.364649999999997     45.002250000000004
C      45.099800000000002     46.003750000000011     44.426349999999999
C      45.566600000000008     44.674850000000006     45.133949999999999
C      49.500700000000009     52.636350000000007     50.211750000000009
C      50.148099999999999     51.639150000000015     51.108150000000009
C      49.929000000000002     50.017150000000015     51.203550000000007
C      49.149200000000008     52.946350000000010     51.621549999999999
C      51.072600000000008     44.398049999999998     49.097149999999999
C      50.799500000000009     53.423749999999998     49.558650000000000
H      51.219999999999999     41.639949999999999     52.403250000000000
H      49.637700000000009     42.926050000000004     52.419950000000000
H      47.941299999999998     53.884249999999994     48.319749999999999
H      46.250600000000006     52.498250000000013     46.575650000000010
H      44.902299999999997     50.501250000000013     46.641150000000010
H      47.763000000000005     42.840750000000014     45.524250000000009
H      49.515900000000002     42.898949999999999     47.338350000000005
H      51.127099999999999     47.003850000000000     50.056550000000001
H      45.811500000000009     45.816950000000006     43.580050000000000
H      44.132800000000003     45.913550000000001     43.796350000000004
H      45.832300000000004     48.412850000000006     44.444250000000011
H      44.663200000000003     44.022750000000002     45.645650000000003
H      45.825200000000009     43.977649999999997     44.350050000000010
H      51.119000000000000     51.709850000000003     51.360150000000004
H      49.782399999999996     49.684350000000009     52.287950000000009
H      50.794300000000007     49.706649999999996     50.523550000000000
H      48.422399999999996     52.756350000000012     52.365949999999998
H      49.667900000000003     53.839050000000015     52.170850000000002
H      51.867199999999997     44.859250000000003     48.354150000000004
H      50.924199999999999     43.451650000000001     48.730550000000008
H      50.806100000000001     54.360050000000001     50.091549999999998
H      51.773099999999999     52.818650000000005     49.421450000000007
H      50.487499999999997     53.834550000000007     48.727150000000009
O      51.817499999999995     44.489450000000005     50.467350000000010
