18

C      47.942899999999995     47.732899999999994     47.127704999999992
C      48.231800000000000     47.822400000000002     48.632404999999999
C      46.555799999999998     47.934200000000004     46.800905000000000
C      47.288100000000007     48.316600000000001     49.602404999999997
C      49.274600000000000     47.675200000000004     46.316625000000002
C      49.600999999999992     47.666499999999999     49.026104999999994
C      45.462499999999999     48.217700000000001     47.699504999999995
C      45.855700000000006     48.645200000000003     49.037604999999992
C      50.366499999999995     47.065899999999999     46.850005000000003
C      50.737100000000005     47.082200000000000     48.248305000000002
H      46.420900000000003     47.782399999999996     45.805705000000003
H      47.394800000000004     48.628500000000003     50.749904999999998
H      49.255800000000001     47.778900000000007     45.250095000000002
H      49.764000000000003     48.073499999999996     50.026405000000004
H      44.364100000000001     47.955600000000004     47.397205000000007
H      45.047200000000004     49.070399999999999     49.864605000000005
H      51.363700000000001     46.929600000000001     46.349645000000002
H      51.635899999999999     47.079999999999998     48.646705000000004
