18

C      48.449449999999985     47.476649999999992     48.749849999999995
C      47.723649999999992     48.707850000000001     48.264750000000006
C      47.535349999999994     46.300750000000001     48.795349999999999
C      46.203649999999996     48.788850000000004     48.411349999999999
C      49.862749999999991     47.607549999999996     48.946449999999999
C      48.457749999999990     49.801250000000003     47.780450000000002
C      46.130449999999996     46.456049999999998     48.829250000000016
C      45.400549999999996     47.681649999999998     48.615049999999997
C      50.658649999999994     48.667549999999999     48.190750000000008
C      49.950550000000007     49.723850000000006     47.565650000000005
H      47.966749999999990     45.275849999999998     48.762350000000012
H      45.477849999999989     49.706949999999999     48.305750000000003
H      50.628949999999989     46.787749999999996     49.169650000000004
H      47.996649999999988     50.724150000000002     47.572450000000003
H      45.659649999999999     45.332850000000001     48.697649999999996
H      44.360649999999993     47.979250000000000     48.599150000000009
H      51.639350000000007     48.687049999999992     48.128550000000004
H      50.867949999999993     50.283650000000002     46.830349999999996
