13

C      50.471394999999994     46.939360999999991     47.740585499999995
C      48.194215000000000     47.160060999999992     48.937105500000001
C      47.439315000000001     47.252960999999992     47.769995499999993
C      46.789884999999998     48.680260999999994     47.342205500000006
C      49.071914999999997     47.012460999999995     47.991395499999996
C      51.108894999999997     47.827660999999999     46.771675500000001
C      45.454364999999996     48.889848000000008     47.282415499999999
H      51.151795000000007     46.493260999999997     48.381655499999994
H      47.642764999999997     47.220960999999996     50.035545499999998
H      47.470124999999996     49.639139000000007     47.724975499999999
H      47.151024999999997     46.360860999999993     47.324125499999994
O      44.349105000000002     48.865784000000005     47.074695500000004
O      51.650894999999998     48.362760999999999     45.964454500000002
