5

C      47.983399999999989     47.790899999999986     47.711049999999993
H      48.915100000000002     47.067200000000000     47.718150000000001
H      48.005000000000003     48.932800000000000     47.712750000000000
H      47.666699999999999     47.565500000000000     48.763649999999998
H      47.084899999999998     47.533799999999999     47.236350000000002
