5

C      47.803149999999988     48.059199999999990     47.830699999999993
H      47.081649999999996     48.757400000000004     47.056100000000001
H      48.918350000000004     48.274800000000013     47.602699999999999
H      47.227249999999998     47.242599999999996     47.749099999999999
H      47.490349999999992     48.079700000000003     48.943899999999999
