12

C      47.997029999999995     48.979649999999985     48.923149999999993
C      49.764229999999991     46.382349999999995     47.221550000000001
C      48.584830000000004     46.493249999999996     46.050050000000006
C      47.656510000000004     48.153249999999993     47.729949999999995
C      48.507179999999998     47.198049999999995     47.085649999999994
C      48.792310000000001     49.031349999999989     50.103649999999995
C      47.247900000000001     49.552549999999997     47.828150000000001
H      47.902650000000001     46.423249999999996     45.344950000000004
H      47.033940000000001     50.559250000000006     47.979149999999997
H      46.017530000000001     49.330549999999988     48.214350000000003
O      49.617350000000002     49.585949999999997     50.655049999999996
O      49.982469999999999     45.440749999999994     47.975850000000001
