18

C      49.706649999999996     46.247599999999991     46.656299999999987
C      47.773849999999996     49.566969999999998     46.847400000000007
C      49.463049999999996     47.577100000000002     46.703299999999999
C      48.681650000000005     49.928970000000007     47.850600000000000
C      50.548649999999995     48.158659999999998     47.522400000000005
C      46.478549999999998     50.017070000000004     46.506000000000000
C      48.029550000000000     48.331170000000000     46.419899999999998
C      49.188850000000002     49.609970000000004     49.253299999999996
C      50.101249999999993     49.362670000000008     48.241900000000001
C      45.791550000000001     48.870469999999997     45.970900000000000
C      46.825950000000006     47.783820000000006     45.835300000000004
H      49.256950000000003     50.159670000000006     50.191199999999995
H      51.109449999999995     47.473759999999999     48.006900000000002
H      45.727850000000004     50.853470000000002     46.530299999999997
H      50.823250000000002     50.196870000000004     48.177599999999998
H      44.890550000000005     48.732240000000004     45.808800000000005
H      46.652749999999997     46.737890000000007     45.888800000000003
O      50.060749999999999     45.146529999999998     46.752300000000005
