18

C      48.766399999999997     47.969499999999996     47.756249999999987
C      47.585799999999999     47.905400000000007     48.545049999999989
C      49.538000000000011     46.798500000000004     47.666950000000000
C      46.760700000000000     46.782100000000000     49.101050000000001
C      49.145099999999999     49.304400000000008     47.165949999999995
C      46.649900000000002     49.145599999999995     48.645349999999993
C      48.881600000000006     45.699200000000005     48.290250000000000
C      47.591600000000000     45.615200000000002     49.028649999999999
C      48.557500000000005     50.448900000000002     47.655549999999998
C      47.209000000000003     50.374600000000008     48.437449999999998
H      50.446899999999999     46.857599999999998     47.155249999999995
H      45.653800000000004     46.921599999999998     49.224149999999995
H      50.067100000000011     49.361300000000007     46.508550000000000
H      45.553100000000001     49.003899999999994     48.826149999999998
H      49.687500000000000     44.865300000000005     47.911049999999996
H      47.352100000000000     44.624500000000005     49.491450000000000
H      48.783900000000003     51.375499999999995     47.339549999999996
H      46.652600000000000     51.269799999999996     48.694550000000000
