31

C      45.805849999999992     45.950949999999992     48.721199999999996
C      50.325749999999999     49.710850000000001     47.772200000000005
C      49.398149999999994     50.784550000000003     47.816499999999998
C      46.190149999999996     46.994750000000003     47.868299999999998
C      45.515450000000001     46.725249999999996     46.439600000000006
C      49.759950000000011     48.332650000000001     47.882700000000007
C      48.006550000000004     50.492449999999998     47.819099999999999
C      47.706450000000011     46.901750000000000     47.606500000000004
C      45.757050000000000     48.366050000000001     47.963000000000001
C      48.264550000000000     48.359149999999993     47.950800000000008
C      47.230850000000004     49.271350000000005     47.722600000000007
C      50.647549999999988     47.164250000000003     47.910699999999999
C      49.987549999999992     46.037550000000003     47.297400000000003
C      48.486049999999999     45.882950000000001     47.051900000000010
C      50.018349999999991     44.666550000000001     48.212400000000009
H      45.534750000000003     46.071750000000002     49.786999999999999
H      46.836649999999999     45.793150000000004     49.221700000000006
H      45.204850000000000     45.652250000000002     47.984600000000007
H      51.332449999999994     49.978950000000005     47.828000000000010
H      49.912750000000010     51.932150000000000     47.546900000000001
H      44.947650000000003     48.872450000000008     47.213200000000008
H      47.516449999999999     51.447449999999996     47.898500000000006
H      45.198050000000002     48.786750000000005     48.935200000000002
H      51.515250000000002     47.358049999999999     47.218000000000011
H      51.049350000000011     46.807849999999995     48.910000000000004
H      50.619250000000015     46.077449999999999     46.213000000000001
H      47.983449999999998     45.033250000000002     46.563200000000002
H      49.006149999999998     44.427250000000001     48.629700000000007
H      50.491149999999998     44.889550000000000     49.012000000000008
H      50.895449999999990     44.067850000000000     47.932700000000004
O      44.484749999999998     46.523649999999996     46.321300000000001
