37

C      44.990249999999989     45.414399999999993     48.099399999999989
C      45.945450000000001     48.007400000000004     49.302399999999992
C      48.674749999999996     47.497799999999998     47.847399999999993
C      46.361849999999997     45.854900000000001     47.676400000000001
C      48.169350000000001     49.805700000000002     46.437100000000001
C      48.493150000000007     46.500800000000012     46.494499999999988
C      46.692950000000003     48.817500000000010     48.297100000000000
C      47.663450000000005     46.650400000000005     47.527599999999993
C      47.995250000000006     49.044600000000003     47.720799999999997
C      44.529750000000000     47.617300000000000     49.300599999999989
C      44.204150000000006     46.105599999999995     49.226099999999988
C      45.544950000000007     44.725900000000003     47.242499999999993
C      45.363250000000001     47.012599999999999     50.379599999999996
C      43.291550000000008     48.454200000000000     49.329299999999989
C      49.004250000000006     45.826999999999998     45.211500000000001
C      48.684850000000004     50.211800000000004     48.132499999999993
C      50.982450000000007     51.701599999999999     48.398600000000002
C      51.061349999999997     49.380000000000010     47.395499999999998
C      47.999850000000002     51.437000000000005     48.711299999999994
C      51.791850000000004     50.683999999999997     47.704299999999989
C      50.426750000000006     50.380600000000001     48.185499999999990
C      52.573850000000000     50.678100000000001     46.316599999999994
H      49.389249999999997     47.297499999999999     48.413199999999989
H      46.567650000000008     49.800899999999999     47.905400000000000
H      43.116949999999996     45.833500000000001     49.467399999999984
H      45.162450000000000     43.729900000000001     46.649400000000000
H      45.063650000000003     47.262400000000000     51.387000000000000
H      48.512949999999996     51.892200000000003     49.427399999999992
H      51.310850000000009     48.507700000000000     46.825199999999995
H      52.046349999999997     50.358600000000010     45.483199999999997
H      53.481249999999996     50.116199999999992     46.129599999999996
H      52.916249999999998     51.829300000000003     46.043599999999998
H      50.709449999999997     52.270099999999999     49.041899999999998
O      42.518750000000004     49.221400000000003     49.227899999999991
O      49.286750000000005     44.955100000000002     44.613000000000000
O      47.659150000000004     49.992500000000007     45.432699999999997
O      46.886550000000007     51.966799999999992     48.744999999999990
