48

C      48.410649999999990     48.189549999999990     48.814149999999991
C      48.729440000000004     48.814349999999990     47.672750000000001
C      52.476649999999999     47.760449999999992     52.495549999999994
C      49.715449999999997     48.173949999999991     49.735349999999997
C      50.034349999999996     49.384050000000002     47.320650000000001
C      50.648449999999997     47.484749999999991     50.499650000000003
C      51.231249999999996     47.654849999999996     52.108949999999993
C      51.145850000000003     48.543549999999996     49.558449999999993
C      51.150249999999993     48.849049999999991     48.087249999999997
C      47.010849999999998     47.754350000000002     49.285250000000005
C      46.146009999999997     47.665049999999994     48.141750000000002
C      46.297770000000000     48.273249999999990     46.747349999999997
C      47.639029999999998     49.030249999999995     46.638849999999998
C      46.934840000000001     47.040349999999989     50.613349999999997
C      45.902349999999998     45.988349999999997     50.817350000000005
C      44.837829999999997     46.092149999999990     49.845649999999992
C      44.873219999999996     46.950149999999994     48.598849999999999
C      47.963099999999997     47.136249999999990     51.643050000000002
C      49.221950000000000     47.467349999999996     51.016649999999998
C      46.642080000000000     46.370549999999994     45.676749999999998
C      45.910809999999998     47.636349999999993     45.381749999999997
C      47.329879999999996     49.287049999999994     43.924549999999996
C      48.000009999999996     49.468049999999991     45.349550000000001
C      50.291750000000000     50.026150000000001     46.173249999999996
C      49.353949999999998     50.026349999999994     45.192349999999998
C      46.020550000000000     48.629849999999990     44.448450000000001
C      45.592689999999997     48.000450000000001     43.059049999999999
C      43.875450000000001     47.186149999999998     47.666750000000000
H      52.611649999999990     47.665449999999993     53.597549999999998
H      43.049450000000000     46.748149999999995     47.900050000000000
H      50.301549999999999     47.632949999999994     52.648250000000004
H      52.171749999999996     49.285449999999997     48.056249999999999
H      52.950550000000000     47.843949999999992     51.604649999999992
H      45.717129999999997     45.367149999999995     51.695750000000004
H      43.907420000000002     45.903549999999996     49.983350000000002
H      47.848930000000003     46.595550000000003     52.636550000000000
H      47.301369999999999     46.001750000000001     44.701149999999998
H      47.223520000000001     50.322449999999989     43.495649999999998
H      47.699849999999998     48.569749999999999     43.283250000000002
H      51.157350000000001     50.671650000000000     46.052050000000001
H      49.532550000000001     50.644649999999999     44.245449999999998
H      46.358300000000000     45.328350000000000     45.386049999999997
H      45.260539999999999     49.446249999999992     44.361150000000002
H      46.422260000000001     47.075149999999994     42.894550000000002
H      44.547860000000000     47.511949999999999     43.543650000000000
H      45.001629999999999     48.657150000000001     42.402450000000002
H      44.013750000000002     47.714749999999995     46.721649999999997
H      47.174540000000000     46.516049999999993     46.493150000000000
