18

C      47.963749999999997     48.533549999999991     47.209149999999994
C      48.034250000000000     47.654049999999998     48.524050000000003
C      48.019250000000000     50.025050000000000     47.267649999999989
C      48.178449999999998     48.334049999999998     49.702550000000002
C      48.145750000000007     47.495150000000002     46.234449999999995
C      47.990350000000007     46.139150000000001     48.578749999999999
C      47.684449999999998     50.620950000000001     48.534749999999988
C      48.093649999999997     49.766950000000001     49.629750000000001
C      48.045450000000002     46.099550000000001     46.263649999999998
C      47.797349999999994     45.252350000000000     47.528649999999999
H      48.368049999999997     50.720949999999995     46.483350000000002
H      48.490849999999995     47.787050000000001     50.569849999999988
H      47.984549999999999     48.127150000000000     45.240150000000000
H      47.860349999999997     45.816350000000000     49.651349999999994
H      47.941249999999997     51.832050000000002     49.062549999999987
H      48.258150000000001     50.135249999999992     50.759850000000000
H      48.314850000000007     45.619650000000000     45.309449999999998
H      47.509150000000005     44.167949999999998     47.662849999999992
