51

C      47.590549999999993     48.065299999999986     47.427199999999992
C      48.896450000000009     47.604699999999994     47.888199999999998
C      49.644750000000002     52.126400000000004     49.544300000000000
C      47.243950000000005     49.408599999999993     48.023699999999998
C      50.037249999999993     48.286299999999997     48.681399999999996
C      48.371950000000005     51.703199999999995     48.803200000000004
C      50.318249999999999     50.792500000000004     49.618200000000002
C      48.286250000000003     50.242999999999995     48.734200000000001
C      49.519150000000003     49.590699999999998     49.250000000000000
C      46.624050000000004     47.540800000000004     46.390999999999998
C      46.857650000000000     46.103099999999998     45.931600000000003
C      48.265650000000001     45.677099999999996     46.244699999999995
C      49.057549999999999     46.157899999999998     47.320300000000003
C      45.346750000000000     48.035299999999992     46.026699999999998
C      44.429650000000002     45.983000000000004     45.238900000000001
C      45.647750000000002     45.296300000000002     45.660600000000002
C      45.031550000000003     49.279499999999999     46.674999999999997
C      45.958950000000002     49.949600000000004     47.540599999999998
C      48.469150000000006     44.267299999999992     45.706000000000003
C      49.666550000000001     43.550600000000003     46.286100000000005
C      50.512350000000005     43.863600000000005     47.506299999999996
C      50.247849999999993     45.460700000000003     47.782799999999995
C      45.845550000000003     43.861499999999992     45.370500000000000
C      47.317450000000001     43.484799999999993     45.487499999999997
C      51.245749999999994     47.538399999999996     49.169399999999996
C      51.160949999999993     46.134900000000002     48.565399999999997
C      47.586850000000005     52.753799999999998     47.738500000000002
C      51.692349999999998     47.882999999999996     50.507999999999996
C      49.729149999999997     43.242400000000004     48.838999999999999
C      51.249950000000005     48.526200000000003     47.781599999999997
H      50.125450000000008     53.065100000000001     49.608999999999995
H      51.371350000000000     50.620400000000004     49.716999999999999
H      43.429949999999998     45.451099999999997     44.837499999999999
H      43.856950000000005     49.363299999999995     46.429900000000004
H      45.742250000000006     50.942200000000000     47.908500000000004
H      51.601649999999999     43.626499999999993     47.313500000000005
H      45.234150000000000     43.304299999999998     44.958300000000001
H      47.271050000000002     42.302199999999999     45.294100000000000
H      52.003549999999997     45.445899999999995     48.803399999999996
H      50.688750000000006     47.856399999999994     51.162500000000001
H      52.570050000000002     47.027400000000000     50.947199999999995
H      52.402450000000009     48.695999999999998     50.748400000000004
H      48.566049999999997     43.630200000000002     49.091000000000001
H      50.233550000000001     43.422499999999999     49.727199999999996
H      49.891950000000001     42.204599999999999     48.749299999999998
H      52.036149999999999     49.183899999999994     47.849500000000006
H      50.746749999999999     48.063400000000001     46.738799999999998
H      46.512949999999996     52.443399999999997     47.637200000000000
N      44.299749999999996     47.262599999999992     45.458799999999997
O      48.070150000000005     53.795400000000001     47.467799999999997
O      50.052450000000000     42.635999999999996     45.623100000000001
