18

C      48.599464999999981     47.453649999999989     48.465499999999992
C      47.362564999999989     47.799250000000001     47.650799999999997
C      48.421704999999989     46.995750000000001     49.816699999999990
C      46.067448099999993     47.404349999999994     48.080399999999997
C      49.886194999999972     47.998649999999998     47.883400000000002
C      47.678904999999986     48.731049999999996     46.542699999999996
C      47.015890999999982     46.780649999999994     50.324900000000007
C      45.835394999999991     47.032049999999998     49.454500000000003
C      50.014224999999982     49.022250000000000     46.856499999999997
C      48.866814999999974     49.296849999999992     45.992300000000000
H      49.350974999999991     46.875050000000002     50.558399999999999
H      45.336794999999995     47.466849999999994     47.309199999999997
H      50.602464999999981     47.686849999999993     48.726599999999998
H      46.616287999999983     48.868249999999989     45.928600000000003
H      46.977770999999990     45.931150000000002     51.040500000000002
H      44.967795000000010     47.081149999999994     50.208900000000000
H      51.032204999999990     49.307149999999993     46.727300000000000
H      48.898344999999992     50.068849999999998     44.959499999999998
