5

C      47.924949999999995     47.966249999999988     48.290499999999994
H      47.143149999999999     47.122550000000004     48.638400000000004
H      48.026050000000005     48.297550000000001     47.198300000000003
H      48.856850000000001     47.611249999999998     48.732299999999995
H      47.527450000000002     48.877449999999996     48.801699999999997
