18

C      47.448749999999997     48.344699999999989     48.040449999999993
C      48.811750000000004     47.581000000000003     48.014150000000001
C      46.679050000000004     48.181399999999996     49.286650000000002
C      49.293650000000000     46.914699999999996     49.132349999999995
C      46.739650000000005     49.007800000000003     46.869750000000003
C      49.296250000000001     47.731399999999994     46.656950000000002
C      47.113850000000006     47.133200000000002     50.203250000000004
C      48.496150000000000     46.792400000000001     50.353549999999991
C      47.527450000000002     49.097600000000000     45.680850000000000
C      48.805750000000003     48.489000000000004     45.519449999999999
H      45.630549999999999     48.719099999999997     49.373749999999994
H      50.369450000000001     46.515600000000006     49.096250000000005
H      45.700150000000001     49.380499999999998     46.905750000000005
H      50.062750000000001     47.191900000000004     46.361750000000001
H      46.429750000000006     46.677800000000005     50.880050000000004
H      48.818450000000006     46.286900000000003     51.319150000000000
H      47.184750000000001     49.713099999999997     44.798949999999998
H      49.464050000000000     48.491600000000005     44.680850000000000
