55

C      47.744899999999994     49.010184999999993     47.968999999999987
C      48.346299999999999     48.092385000000000     47.022899999999993
C      47.930400000000006     52.201285000000006     44.525399999999991
C      47.177199999999999     50.370285000000003     47.740399999999994
C      48.989400000000003     48.745485000000002     45.866900000000001
C      47.414199999999994     52.164584999999995     45.824399999999997
C      48.800200000000004     51.018184999999995     44.471400000000003
C      47.653400000000005     50.829484999999998     46.414800000000000
C      48.351799999999997     50.026185000000005     45.482199999999992
C      47.463200000000001     48.423085000000000     49.342299999999994
C      47.363699999999994     46.964385000000000     49.679400000000001
C      48.219400000000007     46.159885000000003     48.702799999999996
C      48.552999999999997     46.748584999999999     47.338700000000003
C      46.833500000000001     48.710785000000001     50.710499999999996
C      46.279300000000006     47.708584999999999     51.681599999999989
C      46.430599999999998     46.463484999999999     52.245999999999995
C      46.603200000000001     46.518284999999999     50.827299999999994
C      46.439499999999995     50.146284999999999     50.813000000000002
C      46.238600000000005     50.638084999999997     49.482999999999990
C      48.513800000000003     44.766685000000003     48.713600000000000
C      49.266499999999994     43.900385000000000     47.933700000000002
C      49.529700000000005     44.477785000000004     46.567200000000000
C      49.104500000000002     45.774185000000003     46.332999999999998
C      49.758799999999994     47.619385000000001     44.926199999999994
C      49.038700000000006     46.269484999999996     44.892699999999991
C      49.398399999999995     50.826585000000001     43.122399999999999
C      47.635800000000003     46.463785000000001     44.403899999999993
C      45.177899999999994     46.051485000000000     50.212099999999992
C      45.765100000000004     45.109085000000000     52.942700000000002
C      47.950599999999994     43.847585000000002     49.951999999999998
C      50.550399999999996     51.005384999999997     44.478999999999999
H      48.389700000000005     53.052585000000001     43.908400000000000
H      47.451099999999997     53.152484999999999     46.451299999999989
H      46.374600000000001     44.671685000000004     53.670899999999989
H      45.612800000000007     50.383185000000005     51.339199999999991
H      49.461100000000002     42.847515000000001     48.099899999999991
H      50.140500000000003     44.135885000000002     45.687699999999992
H      50.697299999999998     47.418984999999999     45.469499999999996
H      50.036199999999994     48.090485000000001     43.924599999999998
H      49.379099999999994     45.481384999999996     44.280199999999994
H      49.769300000000001     51.448585000000001     42.237600000000000
H      49.496700000000004     49.749585000000003     42.892600000000002
H      47.430499999999995     46.952784999999999     43.438800000000001
H      46.983199999999997     45.213385000000002     44.263300000000001
H      46.913799999999995     46.785585000000005     45.021199999999993
H      45.190600000000003     45.109384999999996     49.666799999999995
H      48.712599999999995     43.579084999999999     50.582599999999999
H      45.225600000000000     45.521885000000005     53.762400000000000
H      44.420800000000000     46.240285000000000     50.835899999999995
H      45.059200000000004     44.557584999999996     52.454299999999989
H      44.958100000000002     46.639784999999996     49.274799999999999
H      47.219400000000007     43.057884999999999     49.481999999999999
H      47.367900000000006     44.414484999999999     50.769799999999989
O      45.984999999999999     51.085285000000006     48.393400000000000
O      51.579200000000000     50.666184999999999     44.650399999999991
