18

C      47.717199999999998     48.727949999999986     48.138349999999988
C      47.776300000000006     47.311350000000004     48.550849999999997
C      48.876800000000003     49.617549999999994     48.499150000000014
C      48.501400000000004     46.874849999999995     49.682749999999999
C      46.613700000000009     49.347049999999996     47.301649999999995
C      46.826000000000008     46.558449999999993     47.858550000000008
C      49.714399999999998     48.996150000000000     49.499550000000013
C      49.534500000000008     47.731549999999999     50.157950000000000
C      45.787000000000006     48.524149999999992     46.425150000000002
C      46.041100000000000     47.118250000000003     46.797349999999994
H      49.120200000000004     50.705550000000002     48.320049999999995
H      48.273000000000010     45.864449999999991     50.077450000000013
H      46.499800000000008     50.413449999999997     47.310749999999999
H      46.780000000000001     45.294449999999998     47.996750000000006
H      50.683500000000009     49.573449999999994     49.565349999999995
H      50.722499999999997     47.309550000000002     50.449150000000003
H      45.277500000000003     48.767049999999998     45.550849999999997
H      45.652900000000002     46.284350000000003     46.272649999999999
