18

C      48.397899999999993     47.450534999999995     48.121599999999994
C      47.806100000000001     48.677905000000003     47.820200000000000
C      48.346299999999999     46.427864999999997     47.034379999999999
C      47.046599999999998     48.873424999999997     46.497590000000002
C      49.095400000000005     47.187615000000001     49.444040000000001
C      48.074500000000000     49.836325000000002     48.509770000000003
C      47.693300000000001     46.606814999999997     45.843830000000004
C      46.945200000000000     47.817535000000007     45.553789999999999
C      48.917999999999999     48.323135000000001     50.376170000000002
C      48.396300000000004     49.657615000000007     49.892560000000003
H      48.911200000000001     45.353425000000001     47.171480000000003
H      46.658300000000004     49.923955000000007     46.319780000000002
H      49.591400000000000     46.240034999999999     49.257790000000000
H      47.667200000000001     50.646574999999999     48.178710000000009
H      47.956200000000003     45.867455000000000     44.922550000000001
H      46.408600000000000     48.082085000000006     44.638629999999999
H      49.416100000000007     48.118484999999993     51.361370000000001
H      48.289999999999999     50.472495000000002     50.719440000000006
