18

C      48.060649999999995     48.419324999999986     48.267449999999990
C      48.072850000000003     47.207975000000005     47.432949999999991
C      47.746850000000009     48.358424999999997     49.713749999999990
C      47.100850000000008     46.183144999999996     47.768349999999998
C      48.451850000000007     49.797425000000004     47.947749999999999
C      48.788750000000007     47.423865000000006     46.218249999999998
C      46.885450000000006     47.355585000000005     50.082649999999987
C      46.484650000000002     46.328455000000005     49.076249999999987
C      49.227450000000005     49.891724999999994     46.745149999999995
C      49.532649999999990     48.652725000000004     46.005150000000000
H      48.018150000000006     49.156625000000005     50.565949999999987
H      47.020350000000008     45.203074999999998     47.178049999999999
H      48.317450000000008     50.796925000000002     48.578549999999993
H      48.736549999999994     46.523795000000007     45.318449999999999
H      46.466549999999998     46.960785000000001     50.985450000000000
H      46.014250000000004     45.298585000000003     49.266549999999995
H      49.546450000000007     50.781724999999994     46.185549999999992
H      49.985749999999996     48.932325000000006     45.014550000000000
