18

C      47.892849999999996     48.840899999999991     47.515199999999993
C      48.293849999999992     47.551000000000002     48.178900000000006
C      47.833649999999992     48.718100000000007     45.993400000000001
C      48.265050000000002     46.223900000000000     47.502099999999999
C      47.777549999999991     49.901500000000013     48.491199999999999
C      48.495549999999994     47.311900000000009     49.572899999999997
C      48.451149999999998     47.546300000000002     45.398899999999998
C      48.237949999999998     46.325699999999998     46.081800000000001
C      47.849750000000000     49.719800000000006     49.903500000000001
C      48.048149999999993     48.392700000000005     50.510299999999994
H      47.222949999999997     49.333500000000001     45.403100000000002
H      48.318449999999999     45.163200000000003     47.872999999999998
H      47.496150000000000     50.836799999999997     47.998800000000003
H      48.746150000000000     46.219600000000000     49.975800000000000
H      48.777050000000003     47.552500000000009     44.356600000000000
H      48.075049999999990     45.343299999999999     45.432200000000002
H      47.790049999999994     50.637500000000017     50.662600000000005
H      48.095849999999999     48.038499999999999     51.643400000000000
