8

C      47.641749999999988     47.286849999999994     48.187549999999995
C      48.399449999999995     48.677049999999994     47.863950000000003
H      48.159649999999992     46.885050000000007     48.986549999999994
H      47.771449999999994     46.423349999999999     47.450249999999997
H      47.972649999999994     49.391450000000006     47.013450000000006
H      48.314950000000003     49.576650000000001     48.609250000000003
H      49.454850000000000     48.307150000000007     47.334950000000006
H      46.545150000000000     47.459350000000001     48.689350000000005
