54

C      47.403299999999987     45.578534999999988     46.931349999999995
C      47.960799999999999     44.939205000000001     45.706350000000000
C      52.440499999999993     46.857574999999997     46.020450000000004
C      48.452199999999998     46.406365000000008     47.653649999999999
C      49.292499999999997     45.194955000000007     44.949850000000005
C      50.912199999999991     47.012805000000000     47.862549999999992
C      51.434999999999995     46.259355000000014     45.248450000000005
C      49.765899999999995     46.581635000000006     46.930150000000005
C      50.035800000000002     45.932635000000005     45.677150000000005
C      45.910999999999994     45.595135000000013     46.975850000000001
C      44.774999999999999     45.123085000000003     46.004750000000001
C      45.577799999999996     44.195864999999998     45.183250000000001
C      47.037999999999997     44.175025000000005     44.852250000000005
C      45.597400000000000     46.382194999999996     48.231650000000002
C      43.155400000000000     46.602005000000005     47.032750000000000
C      46.654199999999996     46.811025000000001     49.179549999999999
C      48.073899999999988     47.035055000000014     48.874350000000000
C      49.144399999999997     47.645445000000009     49.819749999999992
C      50.543499999999987     47.274844999999999     49.295450000000010
C      48.927199999999999     46.807115000000010     51.350950000000005
C      52.352600000000002     46.931695000000005     47.588850000000001
C      49.140599999999999     49.229844999999997     50.132950000000001
C      48.661499999999997     50.045005000000003     49.057650000000002
C      49.139899999999990     51.543554999999998     49.122350000000004
C      53.892599999999995     47.365915000000001     45.733350000000002
C      41.811099999999996     46.536365000000004     47.221450000000011
H      46.223099999999995     47.291235000000000     50.121950000000005
H      42.853099999999998     44.696534999999997     45.206050000000005
H      49.292899999999996     45.142665000000008     43.949350000000003
H      51.531399999999998     46.037585000000007     44.248950000000001
H      45.382099999999994     43.831024999999997     44.100750000000005
H      47.324700000000000     43.648645000000002     43.968750000000000
H      41.022500000000001     47.302255000000002     46.911250000000003
H      51.402099999999997     48.054225000000002     49.437149999999995
H      50.808599999999998     46.373845000000003     50.107050000000008
H      48.215499999999999     45.803505000000001     51.440549999999995
H      48.354099999999995     47.340885000000000     52.050649999999997
H      50.056899999999992     46.687735000000004     51.965150000000001
H      53.337499999999999     47.160354999999996     47.862850000000002
H      48.403700000000008     49.393505000000005     50.956250000000004
H      49.919399999999989     49.694645000000008     50.683250000000001
H      48.647199999999998     49.550285000000002     47.918650000000007
H      47.423999999999999     49.882215000000002     49.047350000000002
H      49.077599999999997     52.351354999999998     48.445649999999993
H      48.973399999999998     51.901555000000002     50.171250000000008
H      50.129399999999997     51.389355000000009     49.044049999999991
H      54.159700000000008     48.524664999999999     45.392050000000005
H      54.977499999999999     47.200365000000005     45.755749999999999
H      53.852999999999987     47.239525000000015     44.451149999999998
H      43.271899999999995     47.554304999999999     46.589449999999999
H      41.383599999999994     45.594625000000008     47.550649999999997
H      43.943399999999997     47.375905000000003     49.068950000000001
N      44.203399999999995     46.657814999999999     48.381650000000000
N      43.536799999999999     45.388765000000006     45.957950000000004
