18

C      47.649715000000000     47.558249999999994     47.391499999999994
C      48.421795000000003     48.397150000000011     48.393599999999999
C      46.379795000000001     47.111850000000004     47.866700000000002
C      47.740424999999988     49.030349999999999     49.628899999999994
C      48.076025000000001     46.996850000000009     46.038800000000002
C      49.814565000000002     48.360450000000000     48.067000000000000
C      45.717205000000007     47.350750000000005     49.134799999999991
C      46.602284999999995     48.184550000000002     49.938799999999993
C      49.485354999999998     46.785350000000008     45.951699999999995
C      50.134444999999999     47.563250000000011     46.881499999999996
H      45.930764999999994     46.182749999999999     47.579299999999996
H      48.334754999999987     49.817250000000001     50.272500000000001
H      47.196325000000002     46.765850000000000     45.282999999999994
H      50.558544999999995     48.961250000000007     48.446899999999992
H      44.855405000000005     46.783950000000004     49.701799999999999
H      46.084694999999996     48.332650000000001     50.820799999999998
H      49.859335000000002     46.183350000000004     45.179200000000002
H      51.144594999999995     47.417550000000006     46.407099999999993
