18

C      48.212999999999994     48.241953499999994     48.591849999999994
C      47.998699999999992     47.733853500000002     47.197350000000000
C      47.127400000000002     49.022753500000000     49.354250000000000
C      46.816300000000005     48.315753500000007     46.558850000000000
C      49.497999999999998     47.808653499999998     49.188449999999996
C      49.043799999999997     46.823253500000000     46.602449999999997
C      45.914799999999993     49.496953499999996     48.700350000000000
C      45.775900000000000     49.004953500000006     47.338450000000002
C      50.401500000000006     46.868353500000005     48.693449999999991
C      50.196599999999997     46.419153500000000     47.309649999999998
H      47.223300000000002     49.426853500000000     50.443750000000001
H      46.325600000000001     48.196453499999997     45.591549999999998
H      49.636400000000002     48.248153500000008     50.104649999999999
H      49.054899999999996     46.447553500000005     45.556249999999999
H      45.185799999999993     50.234946500000000     49.093849999999996
H      44.633800000000001     49.230053500000004     46.956350000000000
H      51.366199999999999     46.112453500000008     49.163350000000001
H      51.053699999999999     45.765053500000000     46.993049999999997
