5

C      47.524199999999993     47.618049999999990     48.147250000000000
C      47.955000000000005     48.883249999999990     47.644850000000005
H      48.989500000000000     48.985550000000003     47.315150000000003
H      47.763800000000010     49.387349999999998     48.684849999999997
O      47.010500000000000     46.612650000000002     48.409449999999993
