18

C      47.809099999999987     47.105599999999995     47.877399999999994
C      47.917499999999997     48.635499999999993     47.624299999999998
C      46.681999999999995     46.463099999999997     48.581099999999999
C      46.665199999999992     49.382199999999997     47.931100000000008
C      49.078899999999997     46.418599999999998     47.776100000000000
C      49.133000000000003     49.211799999999997     47.215499999999999
C      45.411799999999992     47.276399999999995     48.813700000000004
C      45.548299999999998     48.723700000000008     48.544199999999996
C      50.386599999999994     47.193399999999997     47.626399999999997
C      50.404999999999994     48.574500000000000     47.219000000000001
H      46.764599999999994     45.364699999999999     48.694300000000005
H      46.751699999999992     50.654299999999992     47.654600000000002
H      48.743199999999995     45.345700000000008     48.201000000000001
H      49.058500000000002     50.262900000000002     46.826799999999999
H      44.638799999999996     46.605500000000006     49.341799999999999
H      44.761599999999994     49.505200000000002     48.674200000000006
H      51.361200000000004     46.856999999999999     47.811199999999999
H      51.179199999999987     49.138899999999992     46.658200000000001
