5

C      47.954149999999998     48.269700000000000     47.480099999999993
C      47.425950000000000     48.256100000000004     48.722699999999996
H      47.260350000000003     47.027700000000010     48.882200000000005
H      47.422449999999998     48.972299999999990     49.500099999999996
O      48.739649999999997     48.304599999999994     46.499900000000004
