18

C      47.651899999999998     48.548249999999996     47.428899999999992
C      48.579800000000006     47.766449999999992     48.481200000000001
C      46.547600000000003     49.342550000000003     47.834800000000001
C      48.611499999999992     48.281049999999993     49.855300000000000
C      47.745899999999992     48.338750000000005     46.063500000000005
C      49.382300000000001     46.580849999999998     48.066499999999998
C      46.450599999999994     49.416250000000005     49.287800000000004
C      47.573499999999996     49.044449999999998     50.256799999999998
C      48.524900000000002     47.160550000000001     45.748100000000001
C      49.271000000000001     46.389049999999997     46.709699999999998
H      45.781800000000004     49.835849999999994     47.216099999999997
H      49.287599999999998     47.858050000000006     50.681500000000000
H      47.253900000000002     48.942650000000000     45.334000000000003
H      50.247299999999996     46.581249999999997     48.709000000000003
H      45.752700000000004     50.276449999999997     49.648600000000002
H      47.655999999999992     49.190550000000002     51.225099999999998
H      48.736900000000006     47.084649999999996     44.774900000000002
H      49.980099999999993     45.723550000000003     46.224899999999998
