18

C      47.829399999999993     48.714449999999992     47.620449999999984
C      48.511699999999998     47.729050000000001     48.597549999999998
C      48.712299999999992     49.387749999999997     46.593049999999991
C      49.825599999999987     47.236049999999999     48.335149999999999
C      46.436199999999992     48.664949999999997     47.678649999999990
C      47.784500000000001     47.241849999999999     49.691850000000002
C      49.989199999999990     48.910249999999998     46.353749999999991
C      50.526199999999996     48.003149999999998     47.320049999999995
C      45.645599999999995     48.250450000000001     48.772149999999996
C      46.320699999999995     47.669249999999998     49.751549999999995
H      48.166199999999996     49.652450000000002     45.727850000000004
H      50.313299999999991     46.347549999999998     48.952649999999991
H      45.610499999999995     49.135150000000003     47.176850000000002
H      48.132799999999996     46.591949999999997     50.374849999999995
H      50.355199999999989     49.329749999999990     45.375850000000000
H      51.433000000000000     47.600050000000003     47.152749999999997
H      44.567000000000000     48.461050000000000     48.800150000000002
H      46.055499999999988     47.019750000000002     50.624150000000000
