18

C      47.444099999999992     47.973761999999994     47.483099999999986
C      48.424500000000009     48.287742000000001     48.536299999999997
C      47.044200000000004     46.532102000000002     47.359899999999996
C      49.071800000000010     47.334712000000003     49.411999999999992
C      46.701800000000006     48.920372000000000     46.790199999999999
C      48.719000000000008     49.614352000000004     48.863699999999994
C      47.960700000000003     45.583582000000000     47.971299999999999
C      48.954700000000003     45.921092000000002     48.996099999999998
C      47.050399999999996     50.319611999999999     47.082499999999996
C      47.815300000000008     50.449621999999998     48.187899999999999
H      46.316299999999998     46.446362000000001     46.620399999999989
H      49.954800000000006     47.767082000000002     50.025199999999998
H      46.045199999999994     48.681682000000002     45.974800000000002
H      49.553400000000011     50.070501999999998     49.684299999999993
H      47.846599999999995     44.500878000000000     47.734299999999990
H      49.812400000000011     45.239611000000004     49.286699999999996
H      46.649299999999997     51.229951999999990     46.442899999999995
H      47.859399999999994     51.499122000000000     48.400099999999995
