57

C      44.601299999999995     47.967449999999992     43.156700000000001
C      49.438700000000004     46.710050000000003     50.200800000000001
C      48.877299999999998     45.271350000000005     50.516799999999989
C      46.561700000000002     47.105050000000006     46.183599999999998
C      46.015800000000006     45.683350000000004     46.464999999999989
C      49.108200000000004     47.590850000000003     49.146000000000001
C      47.790399999999998     44.639650000000003     49.649400000000000
C      47.444799999999994     47.658950000000004     47.052099999999996
C      46.506700000000002     45.290950000000002     47.830700000000007
C      48.050600000000010     47.043450000000000     48.228899999999996
C      47.613199999999999     45.670050000000003     48.637299999999996
C      50.147600000000004     47.488050000000001     51.243100000000013
C      50.898299999999999     46.584950000000006     52.395699999999991
C      50.412900000000000     45.263550000000002     52.603200000000001
C      49.174799999999998     44.843650000000004     51.844599999999986
C      46.118800000000000     47.750450000000001     45.031999999999996
C      45.197800000000001     46.981250000000003     44.091799999999992
C      45.316799999999994     45.517550000000000     44.172599999999989
C      45.111600000000003     45.059950000000001     45.506100000000004
C      50.695399999999999     48.728850000000008     51.161000000000001
C      51.733700000000006     49.174750000000003     52.168700000000001
C      52.149300000000004     48.556950000000001     53.345800000000011
C      51.625900000000009     47.219750000000005     53.331100000000006
C      49.710600000000007     48.915150000000011     48.917200000000008
C      50.619700000000002     49.672550000000001     49.952500000000001
C      44.383800000000001     44.902650000000001     42.869299999999996
C      48.067000000000000     44.276550000000000     52.722500000000011
C      48.937600000000003     49.942450000000008     49.536200000000008
C      49.077800000000003     51.688350000000000     49.745500000000007
C      49.997700000000002     49.372150000000005     47.421400000000006
C      45.916300000000000     45.137450000000001     42.821399999999997
C      46.730200000000004     48.453050000000005     41.997799999999998
H      43.872900000000001     48.731650000000002     43.382500000000007
H      44.051600000000001     47.380850000000002     42.403999999999996
H      47.279100000000007     43.661850000000001     49.908900000000003
H      47.710699999999996     48.552950000000010     46.641900000000007
H      45.933399999999999     44.222350000000006     48.194999999999993
H      50.876100000000001     44.945650000000001     53.592799999999997
H      46.509000000000000     48.741650000000007     44.721599999999995
H      44.996100000000006     44.054349999999999     45.523600000000002
H      52.357000000000006     50.068650000000005     51.929300000000012
H      52.713200000000001     48.267250000000004     54.242699999999999
H      52.261699999999998     46.630950000000006     53.996400000000008
H      51.341000000000001     50.363450000000000     49.582300000000004
H      48.454299999999996     49.719950000000004     50.499400000000009
H      47.991199999999999     51.989250000000006     49.976900000000001
H      49.609400000000001     51.884950000000003     50.822200000000009
H      49.454900000000002     52.338149999999999     48.948200000000000
H      49.573399999999999     48.743650000000002     46.786799999999999
H      51.092800000000004     49.297950000000000     47.242599999999996
H      49.729100000000010     50.492549999999994     47.286899999999989
H      46.151000000000003     46.181150000000002     42.466499999999996
H      46.579799999999999     44.293950000000002     42.847099999999998
O      43.286799999999999     44.846650000000004     42.389899999999997
O      47.382399999999997     43.698650000000001     53.322799999999987
O      47.725400000000000     47.773250000000004     41.757300000000001
O      45.707600000000006     49.001750000000001     42.342600000000004
