18

C      48.115499999999990     48.668399999999991     48.534250000000000
C      47.323700000000002     47.647200000000005     47.709450000000004
C      48.048099999999998     48.467099999999995     50.057250000000010
C      46.664400000000001     46.585600000000007     48.344650000000001
C      48.892399999999995     49.707000000000001     47.852950000000007
C      47.697099999999999     47.430799999999998     46.369250000000008
C      46.976199999999999     47.579600000000006     50.470350000000010
C      46.549999999999997     46.376899999999999     49.732350000000011
C      49.155999999999992     49.395699999999998     46.463850000000008
C      48.796499999999995     48.202199999999998     45.716149999999999
H      49.094700000000003     48.551700000000004     50.467150000000004
H      46.081199999999995     45.925199999999997     47.543250000000000
H      49.214999999999989     50.591799999999999     48.292150000000007
H      47.091499999999996     46.733700000000006     45.704750000000004
H      47.279299999999999     47.517000000000003     51.443349999999995
H      46.064899999999994     45.408200000000001     50.213850000000008
H      49.935100000000006     50.039800000000007     45.935150000000007
H      48.721299999999999     48.036800000000007     44.556650000000005
