18

C      48.469149999999992     47.846044999999997     47.300649999999997
C      47.777349999999998     48.219544999999997     48.660950000000000
C      49.564350000000005     46.933644999999999     47.499350000000007
C      48.057749999999999     47.394945000000000     49.955150000000003
C      48.054349999999999     48.298845000000000     46.028150000000004
C      46.529949999999999     48.942944999999995     48.666950000000000
C      49.539450000000002     46.126294999999999     48.677650000000000
C      48.848750000000003     46.138784999999999     49.947549999999993
C      46.802650000000000     48.988745000000009     46.172650000000004
C      46.190350000000002     49.548945000000003     47.404749999999993
H      49.980249999999998     46.759644999999999     46.516750000000002
H      47.449950000000001     47.174045000000000     50.817650000000000
H      48.620150000000002     47.908245000000001     45.138750000000002
H      46.349550000000001     49.358744999999999     49.658749999999998
H      50.407449999999997     45.505254999999998     49.025150000000011
H      48.941949999999991     45.599065000000003     50.861249999999998
H      46.299149999999997     49.299045000000000     45.250150000000005
H      45.592550000000003     50.494745000000002     47.538950000000000
