18

C      48.242009999999993     48.241199999999992     47.414449999999988
C      47.451990000000002     47.923799999999993     48.577649999999991
C      49.554709999999993     49.007399999999997     47.485449999999986
C      48.159910000000004     47.999399999999994     49.900949999999995
C      47.715769999999999     47.766899999999993     46.117350000000002
C      46.339750000000002     47.120199999999997     48.489449999999991
C      49.985909999999997     49.419900000000005     48.833649999999992
C      49.296609999999994     48.821499999999993     49.970050000000001
C      46.520440000000001     46.960399999999993     45.945650000000001
C      45.863099999999996     46.660599999999995     47.221049999999991
H      50.039909999999999     49.177499999999988     46.400449999999992
H      47.205639999999995     47.661399999999993     50.859249999999989
H      48.348610000000001     48.046899999999994     45.246749999999992
H      45.582270000000001     47.090799999999994     49.418749999999989
H      50.838709999999999     50.141600000000004     48.980949999999993
H      49.735709999999990     49.215700000000005     50.992350000000002
H      46.249929999999999     46.460699999999996     45.007649999999998
H      45.161290000000001     45.858399999999996     47.310849999999988
