43

C      47.367649999999998     46.284999999999997     47.488249999999994
C      48.260849999999991     46.350000000000001     48.728950000000005
C      47.313549999999992     51.370100000000001     47.531750000000009
C      47.903649999999999     51.184699999999999     48.904450000000004
C      46.999150000000000     47.503200000000000     46.853450000000002
C      48.701650000000001     47.623200000000004     49.436850000000000
C      47.081750000000000     50.050300000000000     46.915250000000000
C      47.632449999999992     48.746600000000008     47.496149999999993
C      48.321849999999998     48.820399999999999     48.764050000000005
C      47.020849999999996     44.979999999999997     46.772150000000003
C      47.453249999999997     43.773500000000006     47.441050000000004
C      48.112349999999992     43.951799999999999     48.651750000000000
C      48.891149999999996     45.153600000000004     49.137149999999998
C      46.534350000000003     52.595300000000002     47.321550000000002
C      45.997149999999991     53.588000000000001     48.279649999999997
C      46.982349999999997     53.501399999999997     49.470250000000000
C      47.529849999999996     52.191700000000004     49.849850000000011
C      45.789249999999996     44.987600000000008     46.085750000000004
C      45.239949999999993     43.728000000000002     45.684049999999999
C      45.690249999999992     42.521300000000004     46.323550000000004
C      46.976349999999996     42.548899999999996     47.062750000000001
C      46.301149999999993     47.418100000000003     45.536950000000004
C      45.339449999999999     46.378800000000005     45.288650000000004
C      50.438649999999996     46.505299999999998     50.836250000000000
C      49.620349999999988     47.754799999999996     50.548849999999995
C      49.373949999999994     45.108499999999999     50.617650000000005
H      46.416249999999991     50.013100000000001     45.923850000000002
H      48.703349999999986     43.033499999999997     48.543750000000010
H      45.966650000000001     53.118900000000004     46.512850000000000
H      45.088250000000002     54.381599999999999     48.174050000000001
H      47.254350000000002     54.276599999999995     50.148550000000000
H      47.994649999999993     52.008900000000004     50.798150000000000
H      44.631050000000002     43.822600000000001     44.697150000000001
H      45.287049999999994     41.618400000000001     46.268750000000004
H      46.892349999999993     41.693900000000006     47.894750000000002
H      46.487049999999996     48.501600000000003     44.759350000000005
H      44.698549999999997     46.254200000000004     44.386150000000001
H      50.985249999999994     46.643800000000006     51.613849999999999
H      51.368949999999998     46.299399999999999     50.100549999999991
H      49.737849999999995     48.479599999999998     51.424849999999999
H      48.554749999999999     44.921799999999998     51.336149999999996
H      49.930149999999998     44.200800000000008     50.495150000000002
N      48.196449999999999     50.035900000000005     49.542149999999999
