25

C      47.484699999999997     47.189149999999998     47.936749999999996
C      48.376599999999996     46.057850000000009     47.603149999999999
C      48.394400000000005     48.233550000000001     48.696649999999991
C      49.708399999999997     45.998350000000009     48.076349999999991
C      46.066100000000006     47.358650000000004     47.656449999999992
C      47.790900000000008     45.153350000000010     46.695449999999994
C      49.702200000000005     47.829050000000002     49.429949999999991
C      50.506699999999995     46.837949999999999     48.915049999999994
C      45.529300000000006     46.291450000000005     46.726349999999996
C      46.271400000000000     45.203350000000007     46.485749999999996
C      46.993200000000002     50.482350000000004     47.796449999999993
C      48.198999999999998     49.449450000000006     47.542549999999991
H      47.153099999999995     51.523350000000001     47.358350000000002
H      49.142399999999995     50.039450000000009     47.252749999999992
H      48.026899999999998     48.739350000000009     49.612650000000002
H      50.114900000000006     45.122950000000010     47.615250000000003
H      45.368300000000005     48.224750000000007     47.603449999999995
H      48.160600000000002     44.567050000000002     46.059950000000001
H      50.023600000000002     48.460950000000004     50.305250000000001
H      51.424099999999996     46.620049999999999     49.242849999999990
H      44.575900000000004     46.332050000000002     46.132649999999998
H      45.885999999999996     44.476649999999999     45.694749999999999
H      46.894599999999997     50.438050000000011     48.870249999999999
H      46.248599999999996     50.048549999999999     47.207650000000001
H      47.898700000000005     49.018549999999998     46.346850000000003
