18

C      48.520899999999990     48.141899999999993     48.682349999999992
C      47.354399999999998     48.837299999999999     48.138549999999995
C      48.698700000000002     46.668599999999998     48.939049999999995
C      46.147999999999996     48.062500000000000     48.421750000000003
C      49.899799999999999     48.738399999999999     48.297650000000004
C      47.482700000000001     50.032899999999998     47.487449999999995
C      47.729599999999998     45.773099999999999     49.002849999999995
C      46.628500000000003     46.850000000000001     49.062650000000005
C      50.027999999999999     49.834200000000003     47.484349999999992
C      48.777299999999997     50.552300000000010     47.230949999999993
H      49.722800000000007     46.436999999999998     49.278549999999996
H      45.113100000000003     48.302900000000001     48.225250000000003
H      50.843299999999999     48.286700000000003     48.669449999999998
H      46.549599999999998     50.361199999999990     46.902850000000001
H      47.632500000000000     44.763100000000001     48.988849999999999
H      45.973700000000001     46.121099999999998     49.615049999999997
H      50.886899999999997     50.064300000000010     46.979050000000001
H      48.857799999999997     51.236899999999999     46.384950000000003
