18

C      47.938599999999994     48.836849999999991     47.578299999999992
C      47.896600000000007     47.518749999999997     48.394300000000001
C      49.292199999999994     49.397950000000009     47.453400000000002
C      49.095399999999998     46.740549999999999     48.924300000000002
C      46.715199999999996     49.475149999999999     47.245000000000005
C      46.684899999999999     46.744850000000000     48.573400000000007
C      50.425600000000003     48.733950000000000     47.799900000000001
C      50.322999999999993     47.330950000000001     48.399500000000003
C      45.520200000000003     48.843449999999990     47.430499999999995
C      45.558099999999996     47.536450000000002     48.170999999999999
H      49.238000000000000     50.314349999999997     46.940600000000003
H      49.216499999999996     45.876249999999999     49.438600000000001
H      46.860100000000003     50.310149999999993     46.561399999999999
H      46.798299999999998     45.685650000000003     48.681699999999992
H      51.435699999999997     49.126550000000002     47.347499999999997
H      51.214399999999998     46.879550000000002     48.710099999999997
H      44.585899999999995     49.470349999999996     47.342299999999994
H      44.564300000000003     47.134149999999998     48.004400000000004
