16

C      47.923799999999986     48.611249999999998     48.040089999999992
C      47.727100000000000     47.110250000000001     48.391140000000000
C      47.741499999999995     49.343650000000004     46.754361100000004
C      47.747599999999998     46.454950000000004     47.162821000000001
C      48.099100000000000     49.658549999999998     49.015590000000003
C      47.704699999999995     47.417750000000005     49.829200000000000
C      47.663900000000005     48.348750000000003     45.627019999999995
C      47.646999999999998     46.999749999999999     45.731620000000014
C      48.124999999999993     48.751849999999997     50.193559999999998
H      47.986299999999993     50.500949999999996     46.683320000000016
H      47.666900000000005     45.395850000000003     46.931224000000000
H      48.596600000000002     50.604149999999997     49.126399999999997
H      47.403399999999998     46.625549999999997     50.543500000000002
H      47.489699999999992     48.833950000000009     44.648620000000001
H      47.512599999999999     46.322650000000003     44.938619999999993
H      48.212200000000003     49.064850000000000     51.351379999999999
