18

C      47.539050000000003     47.520549999999993     47.625399999999999
C      48.275750000000002     48.629950000000008     48.187700000000000
C      47.772150000000011     46.843750000000000     46.512700000000002
C      49.381850000000000     48.988649999999993     47.286800000000007
C      46.410650000000004     47.154550000000000     48.547699999999999
C      47.977850000000004     49.146349999999998     49.592400000000005
C      48.982849999999999     47.138050000000000     45.844100000000005
C      49.914150000000006     48.146650000000001     46.141699999999993
C      46.027050000000003     47.581750000000000     49.891699999999993
C      46.851750000000010     48.793449999999993     50.268999999999998
H      47.126150000000010     46.223450000000000     45.999599999999994
H      50.054750000000013     49.608550000000008     47.569300000000005
H      45.859150000000000     46.621150000000000     47.956700000000005
H      48.568850000000012     49.776550000000000     50.111200000000004
H      49.458750000000009     46.569350000000000     44.905600000000000
H      50.744649999999993     48.472949999999997     45.577099999999994
H      45.255350000000007     47.029550000000000     50.466400000000000
H      46.829850000000008     49.472949999999997     51.094400000000000
