6

C      48.206969999999998     48.834249999999997     48.286099999999990
C      47.996450000000003     47.479050000000001     47.937700000000007
H      48.162830000000007     49.541349999999994     47.573700000000002
H      48.193560000000005     49.017750000000007     49.317700000000002
H      47.793030000000002     46.458650000000006     48.528600000000012
H      48.070170000000005     47.271349999999998     46.682299999999998
