18

C      47.767449999999982     47.585649999999994     48.643999999999991
C      48.060549999999999     48.135750000000002     47.369300000000003
C      47.311349999999997     48.566549999999992     49.719199999999994
C      48.258249999999997     49.582549999999998     47.024900000000002
C      48.201749999999997     46.308350000000004     49.257899999999999
C      48.267749999999999     47.029150000000001     46.359600000000000
C      47.767649999999996     49.924849999999992     49.462600000000002
C      47.822550000000000     50.427250000000001     48.046799999999998
C      48.523849999999989     45.230649999999997     48.393700000000003
C      48.605349999999994     45.696950000000001     46.868299999999998
H      46.929549999999999     48.247649999999993     50.680900000000001
H      49.032449999999990     50.194050000000004     46.241400000000006
H      48.031849999999999     46.318150000000003     50.301099999999998
H      48.150050000000000     47.192650000000000     45.319099999999999
H      47.140049999999995     50.289249999999996     50.312400000000004
H      47.684349999999988     51.592849999999999     47.843299999999999
H      49.070450000000001     44.407150000000001     48.899100000000004
H      48.751749999999994     44.592349999999996     46.370600000000003
