42

C      47.282199999999996     43.877199999999988     52.031549999999989
C      48.327399999999997     48.521400000000000     47.563249999999996
C      47.727500000000006     49.900899999999993     47.567650000000000
C      50.910499999999999     50.230300000000000     43.936750000000004
C      49.344700000000003     48.134999999999991     46.725549999999998
C      48.354200000000006     50.797100000000000     46.525250000000000
C      51.041600000000003     49.019300000000001     44.711550000000003
C      49.793900000000008     51.083399999999997     44.316850000000002
C      49.875799999999998     48.998000000000005     45.582549999999998
C      48.984800000000007     50.294499999999999     45.370149999999995
C      48.141000000000005     47.683799999999991     48.837750000000000
C      47.245300000000000     47.799099999999996     50.010850000000005
C      46.877600000000001     49.160699999999991     50.015050000000002
C      47.099100000000000     50.146600000000007     48.875349999999997
C      48.951900000000009     46.446500000000000     49.083449999999999
C      48.934600000000003     45.320499999999996     50.082049999999995
C      49.189900000000009     43.926499999999990     50.317050000000009
C      49.720799999999997     45.996899999999997     47.950749999999999
C      49.944400000000002     46.896699999999996     46.833650000000006
C      45.821000000000005     49.743700000000004     50.855150000000009
C      45.603700000000003     51.935299999999998     49.655150000000006
C      46.423900000000003     51.456299999999999     48.637850000000000
C      47.916899999999998     44.254599999999996     50.612250000000003
H      44.301000000000002     51.304800000000000     51.101749999999996
H      47.823999999999998     46.706400000000002     51.861350000000002
H      46.064000000000000     47.346099999999993     51.662850000000006
H      46.420100000000005     43.184399999999997     51.944450000000003
H      47.084700000000005     44.578100000000006     52.968850000000003
H      48.035400000000010     43.088899999999995     52.494150000000005
H      51.476300000000009     50.457599999999999     43.031149999999997
H      48.124800000000008     51.874600000000001     46.685350000000000
H      51.698999999999998     47.948000000000008     44.767049999999998
H      49.285200000000003     51.892600000000002     43.863250000000008
H      47.135000000000005     44.302899999999994     49.928049999999999
H      50.433300000000003     45.140600000000006     48.228350000000006
H      51.009299999999996     46.805099999999996     46.406649999999999
H      45.402000000000001     49.182900000000004     51.636949999999999
H      45.124100000000006     52.911100000000005     49.434650000000005
H      46.403900000000000     52.234300000000005     47.879050000000007
H      50.003200000000007     43.216799999999992     49.965350000000001
N      46.963100000000004     46.930700000000002     51.195650000000001
N      45.270600000000002     51.021599999999992     50.656549999999996
