18

C      48.529099999999993     47.925799999999995     47.284199999999998
C      47.433800000000005     47.929500000000012     48.177200000000006
C      48.969600000000000     49.376300000000001     47.025300000000009
C      47.227000000000004     48.875200000000000     49.211800000000004
C      48.896300000000011     46.628300000000003     46.782400000000003
C      46.745500000000007     46.645400000000002     48.269500000000001
C      48.926700000000004     50.536200000000001     48.011900000000004
C      48.039300000000004     50.031900000000000     49.066800000000008
C      48.344100000000005     45.270900000000005     46.939600000000006
C      47.367900000000006     45.393100000000004     47.975900000000003
H      49.938400000000001     49.711500000000001     46.517800000000001
H      46.320100000000004     48.791000000000004     49.979300000000002
H      49.776499999999999     46.386800000000001     46.020699999999998
H      46.061599999999999     46.472700000000003     48.931400000000004
H      49.189599999999999     51.558900000000001     47.621500000000005
H      47.909500000000001     50.807600000000001     49.767100000000006
H      48.765699999999995     44.441099999999999     46.686900000000001
H      47.098800000000004     44.453099999999999     48.119199999999999
