5

C      47.716149999999992     47.762809999999995     47.804649999999995
H      47.453550000000000     47.020189999999999     47.129849999999998
H      47.183949999999996     47.541490000000003     48.870150000000002
H      47.582049999999995     48.979810000000001     47.670949999999998
H      48.816050000000004     47.519220000000004     47.888849999999998
