62

C      47.996449999999996     46.710699999999989     51.461849999999991
C      48.727649999999997     47.661999999999999     50.654550000000000
C      47.165750000000003     51.460599999999999     53.184549999999994
C      47.303150000000002     47.353699999999996     52.663550000000001
C      49.035849999999996     49.157899999999998     50.932350000000000
C      46.623649999999998     50.072299999999998     53.398049999999998
C      48.251750000000001     50.912600000000005     52.331849999999996
C      47.124250000000004     48.828499999999998     52.882649999999998
C      48.300949999999986     49.536600000000000     52.099249999999998
C      47.951750000000004     45.256499999999996     51.173150000000000
C      48.610849999999999     45.414099999999998     49.752549999999999
C      48.963049999999996     44.380499999999998     48.946449999999999
C      49.230050000000006     46.720500000000001     49.638449999999999
C      46.326449999999994     46.408299999999997     53.144949999999994
C      46.249549999999999     45.019900000000000     52.956849999999989
C      47.103449999999995     44.526600000000002     52.025849999999991
C      45.059950000000001     44.269999999999996     53.436249999999994
C      46.755650000000003     52.972099999999998     53.222849999999994
C      47.838149999999999     46.954000000000001     45.051949999999998
C      48.722049999999996     45.860199999999999     45.504849999999998
C      46.781350000000003     48.676099999999998     42.352750000000000
C      47.986450000000005     48.372799999999991     45.320049999999995
C      47.383449999999996     49.659799999999997     44.585449999999994
C      46.742549999999994     49.694399999999995     43.259349999999998
C      48.637449999999987     44.535399999999996     45.994149999999998
C      48.785049999999998     48.771200000000000     46.556549999999994
C      49.096850000000003     50.144300000000001     46.093550000000000
C      48.205550000000002     50.697299999999991     45.092250000000000
C      50.441249999999997     49.913599999999995     45.104849999999999
C      46.054349999999999     51.093700000000005     42.684249999999999
C      49.882549999999995     45.344999999999999     46.073549999999997
C      49.548450000000003     50.956899999999997     47.044950000000000
C      48.220049999999986     43.232799999999997     46.691150000000000
H      49.975049999999996     49.484400000000001     50.365749999999998
H      45.705849999999998     49.778600000000004     54.039449999999988
H      48.882350000000002     51.609699999999997     52.024249999999995
H      49.983750000000001     46.834699999999998     48.925750000000001
H      45.665250000000000     46.858599999999988     53.932649999999995
H      47.101849999999999     43.350499999999997     51.678849999999997
H      44.651150000000001     43.647399999999998     52.672750000000008
H      45.044749999999993     43.414000000000001     54.380650000000003
H      44.466650000000001     45.223399999999998     53.870149999999995
H      45.931550000000001     53.579699999999995     52.932050000000004
H      47.577150000000003     53.580700000000000     52.873050000000006
H      47.081450000000004     53.514400000000002     54.167049999999996
H      46.914149999999992     46.764800000000001     44.411149999999999
H      46.989450000000005     47.799500000000002     42.741049999999994
H      49.120149999999995     48.328499999999998     47.446549999999995
H      48.442549999999997     51.815199999999997     44.899149999999999
H      50.806950000000001     48.966199999999994     45.709449999999997
H      50.147449999999992     49.659399999999998     44.144250000000000
H      51.533349999999999     50.262999999999998     45.181249999999999
H      46.279550000000000     48.268200000000000     41.619349999999997
H      45.167050000000003     50.916699999999999     42.266549999999995
H      45.949449999999999     51.952599999999997     43.403349999999996
H      46.417450000000002     51.613199999999999     41.851749999999996
H      50.818550000000002     45.850499999999997     46.021249999999995
H      49.624849999999995     52.062300000000000     46.961050000000000
H      49.820949999999996     50.518400000000007     48.099550000000001
H      48.635450000000006     42.419300000000000     46.181449999999998
H      47.174049999999994     43.130400000000002     46.663349999999994
O      48.941249999999997     43.466200000000001     48.079749999999997
