18

C      48.206994499999993     47.740199999999987     47.400999999999996
C      47.647094500000001     48.481399999999994     48.532100000000007
C      47.368124500000000     46.612700000000004     46.803500000000000
C      46.480674499999999     47.855899999999991     49.099299999999999
C      49.462404499999998     48.282399999999996     46.819099999999999
C      48.483724500000001     49.539200000000008     49.095300000000002
C      46.296064500000000     46.027699999999996     47.675300000000000
C      45.774144499999998     46.737200000000001     48.836999999999996
C      50.109804500000003     49.446500000000000     47.368499999999997
C      49.506244500000001     50.093599999999995     48.268499999999996
H      47.586024500000001     45.953199999999995     45.837200000000003
H      45.970474500000002     48.135199999999998     49.997599999999998
H      50.097554500000001     47.349199999999996     46.226800000000004
H      48.407874499999998     49.886099999999999     50.162799999999997
H      45.979584500000001     44.937799999999996     47.377900000000004
H      44.951055500000002     46.280599999999993     49.375200000000000
H      51.048944499999998     49.879099999999994     46.919699999999999
H      49.896174500000001     51.062200000000004     48.594099999999990
