18

C      48.396449999999987     48.454207999999994     47.896499999999996
C      48.130950000000006     47.096068000000002     48.118499999999997
C      48.784849999999999     49.475208000000009     48.985600000000005
C      47.876349999999995     46.771928000000003     49.500200000000007
C      48.249249999999996     49.289668000000006     46.647999999999996
C      47.484050000000003     46.492227999999997     46.859800000000007
C      48.746550000000006     49.100668000000013     50.403000000000006
C      48.095850000000006     47.776138000000003     50.522999999999996
C      47.618850000000002     48.690027999999998     45.602500000000006
C      47.304549999999999     47.306408000000005     45.730300000000000
H      49.151050000000005     50.457757999999998     48.833600000000004
H      47.498749999999994     45.880402000000004     49.858000000000004
H      48.685849999999995     50.198038000000011     46.824200000000005
H      47.009850000000007     45.542242000000002     46.691500000000005
H      48.941650000000003     49.854427999999999     51.361600000000010
H      48.078750000000007     47.207908000000003     51.409999999999997
H      47.221449999999997     49.102857999999998     44.590000000000003
H      46.848949999999995     46.720607999999999     44.829700000000003
