18

C      47.371549999999985     48.546599999999984     48.609949999999998
C      48.851849999999999     48.599899999999991     48.295550000000006
C      46.361949999999993     49.022099999999995     47.631550000000004
C      49.111249999999998     49.057199999999995     46.929450000000003
C      46.967349999999996     47.590000000000003     49.591349999999991
C      49.681150000000002     48.089799999999997     49.510449999999992
C      46.796750000000003     49.500000000000000     46.328350000000000
C      48.240750000000006     49.532700000000006     45.979249999999993
C      47.924950000000010     46.851299999999995     50.383150000000001
C      49.251750000000001     47.225200000000001     50.534850000000006
H      45.311549999999997     48.784599999999998     47.566749999999999
H      50.128650000000007     49.075999999999993     46.309849999999997
H      45.857550000000003     47.387299999999996     49.455249999999992
H      50.688450000000003     48.137799999999999     49.267449999999997
H      46.042850000000001     49.700400000000002     45.651849999999996
H      48.234150000000000     49.963000000000008     44.960849999999994
H      47.498450000000005     46.036999999999992     50.951849999999993
H      50.053349999999995     46.912899999999993     51.039150000000006
