18

C      47.483419999999995     48.693949999999987     48.113000000000000
C      47.926739999999995     47.466850000000001     47.537599999999998
C      47.203440000000001     49.826749999999997     47.500799999999998
C      48.629480000000001     47.541949999999993     46.170100000000005
C      46.951229999999995     48.678450000000005     49.519499999999994
C      47.769059999999996     46.167349999999992     48.196100000000001
C      48.202879999999993     49.898850000000003     46.333600000000004
C      48.877399999999994     48.716450000000002     45.600099999999998
C      47.016149999999996     47.485449999999993     50.225799999999992
C      47.254930000000002     46.296150000000004     49.549800000000005
H      46.825249999999997     50.718349999999994     48.059700000000007
H      49.098109999999991     46.527949999999997     45.833900000000000
H      46.371369999999999     49.390650000000001     50.125399999999999
H      48.092759999999984     45.212049999999998     47.827600000000004
H      48.769030000000001     50.787950000000002     45.957300000000004
H      49.628630000000001     48.733150000000002     44.814599999999999
H      46.641949999999994     47.330649999999999     51.185400000000001
H      46.970359999999999     45.711850000000005     50.384399999999999
