7

C      48.246499999999997     47.265249999999995     47.219499999999996
C      47.941000000000003     47.867350000000002     48.574399999999997
H      49.077599999999997     46.938550000000006     46.801299999999998
H      47.239000000000004     47.342950000000002     46.773200000000003
H      48.073400000000007     49.061449999999994     48.558800000000005
H      48.488500000000002     47.336449999999999     49.226799999999997
H      46.922400000000003     47.774550000000005     48.934099999999987
