70

C      47.127394999999993     47.643349999999998     51.547299999999993
C      46.386494999999996     48.406749999999995     52.522200000000005
C      47.209384999999997     49.007650000000005     51.464200000000005
C      44.887684999999991     48.398649999999996     53.039100000000005
C      47.220134999999999     51.452750000000002     48.139100000000006
C      47.471935000000002     51.453749999999992     46.593900000000005
C      50.611844999999988     44.526849999999996     49.283600000000000
C      49.033544999999989     46.272550000000003     44.464800000000004
C      47.332745000000003     50.241049999999994     48.942300000000003
C      50.414644999999993     44.376449999999998     47.734500000000004
C      49.655644999999993     45.174149999999997     45.302100000000003
C      50.190844999999996     45.842649999999999     49.728300000000004
C      47.653795000000002     50.026149999999994     46.260700000000000
C      48.566044999999988     47.545250000000003     45.150800000000004
C      48.869545000000002     48.027449999999995     49.426000000000002
C      49.725644999999986     45.371949999999998     46.768400000000000
C      48.061144999999996     49.001049999999999     48.618700000000004
C      49.426644999999994     46.796849999999999     48.864100000000001
C      48.145744999999991     49.098149999999997     47.098600000000005
C      48.677244999999999     47.827449999999992     46.690000000000005
C      49.090845000000002     46.577649999999998     47.439400000000006
C      47.421584999999993     49.864049999999999     44.873000000000005
C      47.933044999999993     48.567649999999993     44.292300000000004
C      46.419654999999992     52.648750000000000     48.801800000000000
C      45.512644999999992     53.439550000000004     47.896000000000001
C      45.866554999999991     53.448950000000004     46.421300000000002
C      46.664594999999991     52.425649999999997     45.874600000000001
C      46.215874999999997     52.022050000000000     44.550900000000006
C      51.298045000000002     43.503149999999998     50.029200000000003
C      51.743044999999995     42.295449999999995     49.320200000000000
C      51.529544999999999     42.404449999999997     47.933700000000002
C      51.067044999999993     43.434449999999998     46.986400000000003
C      51.134945000000002     43.468550000000000     45.333300000000001
C      49.808044999999993     43.813449999999996     44.748000000000005
C      44.957364999999996     54.115450000000003     45.321500000000000
C      48.742944999999992     42.980049999999999     45.380500000000005
C      50.079944999999995     43.524450000000002     43.323700000000002
C      47.207484999999991     50.367550000000001     50.586100000000002
C      47.203895000000003     48.370849999999997     42.880000000000003
C      45.494784999999993     53.285649999999997     43.990500000000004
H      47.958844999999997     47.129150000000003     52.253700000000002
H      46.316594999999992     47.111249999999991     50.978000000000002
H      44.503805000000000     48.950449999999996     53.925999999999995
H      46.601224999999999     49.296849999999999     42.476100000000002
H      48.947544999999991     46.147449999999999     43.352400000000003
H      50.659944999999993     46.219550000000005     50.742100000000001
H      48.992744999999999     47.976250000000000     50.376000000000005
H      45.107185000000001     54.547450000000005     48.127200000000002
H      46.679744999999997     52.683649999999993     49.803200000000004
H      44.643244999999993     52.777049999999996     47.981200000000001
H      51.521844999999999     43.729250000000000     51.078200000000002
H      52.255245000000002     41.452549999999995     49.764000000000003
H      51.762144999999990     41.584449999999997     47.534800000000004
H      51.805244999999999     44.333849999999998     44.981900000000003
H      51.468744999999998     42.513449999999999     44.927200000000006
H      48.871245000000002     42.636049999999997     46.485300000000002
H      47.838344999999990     43.680650000000000     45.416400000000003
H      48.856944999999996     42.058850000000000     44.853500000000004
H      51.163645000000002     43.774949999999997     43.212200000000003
H      49.342244999999991     44.030850000000001     42.611200000000004
H      49.974744999999984     42.352750000000000     42.966200000000001
H      46.266435000000001     50.838450000000002     50.862700000000004
H      47.790244999999985     51.070150000000005     51.135200000000005
H      46.333114999999992     47.777949999999997     43.055300000000003
H      47.791644999999988     47.928649999999998     42.074000000000005
H      45.101014999999990     53.116250000000001     42.904000000000003
H      46.213534999999993     54.066949999999999     43.373800000000003
N      46.693704999999994     50.812750000000001     44.059100000000001
O      43.859654999999989     48.058349999999997     52.503800000000005
O      43.744754999999998     54.088149999999992     45.161400000000000
