18

C      48.454504999999990     47.812199999999990     47.373849999999997
C      47.522745999999998     48.136599999999994     48.383049999999997
C      48.713785000000001     46.411600000000000     47.349549999999994
C      46.953855000000004     47.178699999999999     49.432949999999991
C      48.907074999999992     49.014900000000004     46.535650000000004
C      47.119755000000012     49.487100000000005     48.443849999999998
C      48.190922999999998     45.347599999999993     48.222250000000003
C      47.292740400000000     45.792300000000004     49.208649999999992
C      48.614525000000000     50.409299999999995     46.733450000000005
C      47.526137999999996     50.674100000000003     47.664349999999999
H      49.454664999999991     46.396099999999997     46.580649999999991
H      45.958755000000011     47.523999999999994     49.969250000000002
H      50.041244999999989     49.244499999999995     45.888649999999998
H      46.395454999999991     49.891200000000005     49.302650000000000
H      48.558214999999990     44.303199999999997     48.045349999999999
H      46.871655000000004     45.442799999999998     50.111350000000002
H      48.810275000000004     51.514999999999993     46.251350000000002
H      46.975854999999989     51.696800000000003     47.947350000000000
