18

C      47.104799999999997     47.729299999999995     48.495899999999992
C      47.547499999999999     48.829999999999991     47.565200000000004
C      49.160700000000006     46.055000000000000     48.150600000000011
C      48.762500000000003     49.152999999999999     46.865300000000005
C      47.801099999999991     46.407899999999998     48.443800000000010
C      46.716099999999997     49.965800000000002     47.837100000000007
C      50.290199999999999     47.071899999999999     47.714900000000000
C      49.830600000000004     48.214199999999998     46.768500000000003
C      45.866500000000002     48.226300000000002     49.074200000000005
C      45.574900000000000     49.650900000000000     48.687700000000007
H      49.783999999999992     45.117899999999999     47.847500000000011
H      48.680000000000007     50.071100000000001     46.141900000000007
H      47.397999999999996     45.506500000000003     48.778100000000009
H      47.098399999999998     50.882100000000001     47.440700000000007
H      51.100899999999996     46.437100000000001     47.610900000000001
H      50.489300000000000     48.089700000000001     45.998699999999999
H      45.387600000000006     47.838000000000001     50.001300000000001
H      44.899100000000004     50.408300000000004     49.001600000000010
