38

C      48.069899999999997     47.983799999999995     47.135914999999990
C      48.421599999999998     49.294600000000003     46.353614999999991
C      47.287999999999997     50.651200000000003     51.156025000000000
C      47.750299999999996     48.163299999999992     48.564614999999989
C      48.361999999999995     50.284700000000001     47.549914999999999
C      47.258200000000002     51.840400000000002     50.114615000000001
C      48.739900000000006     50.507300000000001     51.366256000000000
C      48.243800000000007     50.604900000000001     50.076614999999990
C      48.054000000000002     49.651499999999999     48.845414999999988
C      47.846699999999998     46.783799999999999     46.481114999999988
C      47.833900000000000     46.884299999999996     45.042214999999999
C      48.248999999999995     48.125799999999998     44.384614999999997
C      48.776700000000005     49.219200000000001     45.027414999999991
C      47.665700000000001     46.856499999999997     49.307114999999996
C      48.169399999999996     45.596000000000004     48.671414999999996
C      46.049800000000005     50.080100000000002     51.831293000000002
C      49.783500000000004     45.581199999999995     48.690314999999998
C      47.539600000000007     44.226799999999997     49.491014999999990
H      46.337800000000001     51.940299999999993     49.478314999999995
H      47.348500000000001     52.686700000000002     50.828014999999994
H      49.292400000000001     51.162099999999995     52.138375000000003
H      48.035300000000007     48.086299999999994     43.231014999999999
H      49.036600000000007     50.048500000000004     44.549714999999992
H      47.971299999999999     46.900599999999997     50.324714999999998
H      46.434399999999997     46.875799999999998     49.464714999999998
H      45.987300000000005     50.814599999999999     52.768985000000001
H      45.780600000000007     49.046399999999991     52.056564999999999
H      45.620699999999999     50.869599999999991     51.143343000000002
H      49.972700000000003     44.492099999999994     48.835115000000002
H      50.379300000000001     46.138999999999996     49.527315000000002
H      50.289600000000007     46.218599999999995     47.859515000000002
H      47.581800000000001     43.313299999999998     48.849215000000001
H      47.902799999999999     44.342399999999998     50.489814999999993
H      46.646500000000003     44.353700000000003     49.959314999999989
H      47.480599999999995     46.120499999999993     44.417914999999994
H      48.659400000000005     51.410299999999992     47.485315000000000
H      46.840100000000007     44.893100000000004     47.077514999999991
N      47.959699999999998     45.338099999999997     47.203715000000003
