18

C      48.059624999999997     48.791499999999992     47.970999999999989
C      48.260625000000005     47.491799999999998     48.306899999999999
C      48.564724999999996     49.251000000000005     46.563699999999997
C      48.896524999999997     46.622700000000002     47.321599999999997
C      47.183824999999999     49.551699999999997     48.956299999999992
C      47.930025000000001     46.717799999999997     49.451199999999993
C      49.114924999999999     48.423299999999998     45.625099999999996
C      49.424224999999993     47.190799999999996     46.099599999999995
C      46.765914999999993     48.921300000000002     50.101700000000001
C      47.099324999999993     47.428799999999995     50.330700000000000
H      48.451824999999999     50.263900000000000     46.172799999999995
H      49.046925000000002     45.521799999999999     47.572299999999998
H      46.785065000000003     50.478200000000001     48.760600000000004
H      48.286225000000002     45.744900000000001     49.745899999999999
H      49.645325000000000     48.568300000000001     44.744999999999997
H      50.053425000000004     46.365600000000001     45.588499999999996
H      45.946574999999996     49.116999999999997     50.801099999999998
H      46.720134999999999     47.120599999999996     51.255000000000003
