53

C      48.533000000000001     48.307442999999992     49.336249999999993
C      49.494200000000006     48.968443000000001     48.225750000000005
C      43.501500000000007     47.255743000000002     43.986950000000000
C      44.495500000000007     47.208442999999995     42.904949999999999
C      47.290800000000004     47.605443000000001     48.855250000000005
C      49.185000000000002     48.919743000000004     46.746250000000003
C      43.606000000000009     47.286742999999994     45.387250000000002
C      45.881600000000006     47.437643000000001     43.280450000000002
C      45.519500000000008     47.322443000000000     46.961449999999999
C      47.219200000000001     48.528242999999996     45.127250000000004
C      46.881900000000002     47.709443000000000     47.361450000000005
C      47.774000000000001     48.345743000000006     46.409849999999999
C      45.082599999999999     47.365843000000005     45.607150000000004
C      46.154899999999998     47.633343000000004     44.746150000000000
C      49.941500000000005     48.425142999999998     51.617249999999991
C      51.352500000000006     48.377642999999999     51.813949999999998
C      50.900700000000001     49.515742999999993     50.886450000000004
C      50.855699999999999     49.357342999999993     48.225950000000005
C      47.184700000000007     46.476342999999993     49.873150000000003
C      48.208500000000001     46.322943000000002     50.877949999999998
C      49.295500000000004     47.542842999999998     50.351850000000006
C      50.367099999999994     49.331242999999994     45.992049999999999
C      51.461399999999998     49.653843000000002     46.945450000000001
C      51.710000000000008     49.585043000000006     49.497850000000007
C      51.872600000000006     48.431243000000002     53.192850000000000
C      47.415300000000002     49.405442999999998     49.518750000000004
C      52.488500000000002     50.835843000000004     46.688549999999999
C      49.094999999999999     48.387442999999998     52.861450000000012
C      47.685699999999997     44.981942999999994     50.184950000000008
H      43.841700000000003     47.125942999999999     41.965949999999999
H      42.753600000000006     47.399342999999995     45.999450000000003
H      46.575500000000005     47.464342999999992     42.395450000000004
H      44.810699999999997     46.867943000000004     47.795050000000003
H      47.954200000000000     48.822242999999993     44.300750000000001
H      51.065300000000008     50.675243000000002     51.004749999999994
H      46.092500000000001     46.347343000000002     50.349250000000005
H      48.058900000000008     46.407542999999997     51.829149999999991
H      50.013899999999992     46.846543000000004     50.093049999999998
H      49.908200000000008     49.413243000000001     44.843350000000001
H      52.218500000000006     48.791142999999998     46.749949999999998
H      52.602500000000006     48.754443000000002     49.533750000000005
H      52.493899999999996     50.342442999999996     49.513050000000000
H      48.135700000000000     47.813742999999995     52.717050000000000
H      42.565600000000003     47.785442999999994     43.705449999999999
H      52.753500000000003     51.038243000000001     47.776650000000004
H      53.434399999999997     50.372942999999999     46.114950000000000
H      52.094299999999990     51.787257000000004     46.152650000000001
H      49.208300000000008     47.732342999999993     53.951550000000005
H      48.550200000000004     49.354143000000001     52.658849999999994
H      47.718800000000002     44.212742999999996     51.004250000000006
H      46.768000000000001     44.581143000000004     49.233249999999998
O      52.306399999999996     47.924942999999992     54.034050000000001
O      47.062700000000007     50.393042999999999     49.378550000000011
