18

C      48.512549999999990     47.251849999999997     47.914549999999991
C      47.705249999999999     48.578549999999993     47.824849999999998
C      49.911449999999995     47.122150000000005     47.579349999999991
C      48.263349999999996     49.733050000000006     47.216049999999996
C      47.791149999999995     46.096050000000005     48.514150000000001
C      46.220949999999995     48.514150000000001     47.975650000000002
C      50.381849999999993     48.430949999999996     47.007649999999998
C      49.683349999999997     49.522149999999996     46.705649999999991
C      46.470849999999999     46.464050000000000     49.122149999999991
C      45.527949999999997     47.524349999999998     48.834249999999997
H      50.454349999999998     46.291449999999998     47.295749999999998
H      47.699849999999998     50.687049999999999     47.032950000000000
H      48.286949999999997     45.312950000000001     48.997649999999993
H      45.781450000000000     49.458849999999998     47.522649999999999
H      51.223250000000000     48.602850000000004     46.206449999999990
H      50.165349999999997     50.322950000000006     46.146450000000002
H      46.364649999999997     45.616649999999993     49.853549999999998
H      44.776750000000000     47.673649999999995     49.574349999999995
