18

C      47.421849999999999     47.240589999999997     47.651100000000000
C      48.062349999999995     48.449060000000003     48.307300000000005
C      46.336449999999999     47.701030000000003     46.771999999999998
C      47.281949999999995     49.619360000000000     48.694099999999999
C      48.131250000000009     45.998509999999996     47.460799999999999
C      49.470349999999996     48.399360000000001     48.918600000000005
C      45.997650000000007     48.923060000000007     46.853600000000007
C      46.154550000000000     49.945059999999998     47.881200000000000
C      49.429150000000007     46.038210000000007     48.146999999999998
C      49.998550000000009     47.054630000000003     48.974700000000006
H      45.787549999999996     46.998779999999996     46.204900000000002
H      47.445650000000001     50.318359999999998     49.551400000000008
H      47.938850000000002     45.202939999999998     46.661000000000008
H      49.865250000000003     49.206159999999997     49.475200000000008
H      45.150549999999996     49.202159999999992     46.390800000000006
H      45.560850000000002     50.968559999999997     47.872300000000003
H      50.072550000000007     45.031440000000003     48.104599999999998
H      50.849450000000004     46.711039999999997     49.795099999999998
