32

C      50.180849999999992     46.926299999999998     47.819299999999991
C      49.512650000000001     46.216999999999999     46.738499999999995
C      46.195149999999991     48.613100000000003     49.961900000000000
C      45.325150000000001     47.917599999999993     48.939799999999998
C      49.697049999999997     47.793999999999997     48.959500000000006
C      48.039849999999994     46.311399999999992     46.928699999999999
C      47.679049999999997     48.710399999999993     49.996899999999997
C      45.935249999999989     46.931599999999989     48.186199999999999
C      48.191749999999992     47.769899999999993     49.034399999999991
C      47.394050000000000     46.737499999999997     48.230599999999995
C      51.554249999999989     47.296899999999994     47.565399999999997
C      51.785649999999997     45.808999999999997     45.725199999999994
C      52.551949999999998     46.388999999999996     46.862800000000000
C      50.409450000000000     45.927300000000002     45.601499999999994
C      45.469749999999998     49.563999999999993     50.771400000000000
C      44.029649999999997     49.832300000000004     50.571499999999986
C      43.275449999999999     49.174400000000006     49.556399999999996
C      43.995049999999999     48.195999999999998     48.708399999999997
C      50.564549999999990     48.670699999999997     49.760999999999996
H      47.175750000000001     46.076399999999992     46.188199999999995
H      48.298549999999999     49.589900000000000     50.315099999999994
H      45.451050000000002     46.458699999999993     47.305799999999998
H      52.288750000000000     47.896599999999992     48.074999999999989
H      52.357250000000001     45.629999999999995     44.750899999999994
H      49.930349999999997     45.644800000000004     44.714799999999997
H      45.799649999999993     50.339500000000001     51.283099999999990
H      43.410049999999991     50.370000000000005     51.285200000000003
H      42.347349999999999     49.510300000000001     49.406300000000002
H      43.311949999999989     47.664699999999996     48.069099999999999
H      50.306449999999991     49.586399999999998     50.321099999999987
H      51.627949999999991     48.637099999999990     49.429400000000001
O      53.652650000000001     46.102599999999995     47.308799999999998
