8

C      48.261499999999991     48.303199999999990     48.611599999999989
C      47.846799999999995     47.497900000000008     47.342999999999996
H      49.261600000000001     48.178599999999996     48.252800000000001
H      48.375200000000000     49.518499999999996     48.527499999999996
H      48.208599999999997     46.481500000000004     47.243499999999997
H      48.350299999999990     47.958900000000007     46.314000000000000
H      47.867799999999995     48.058000000000000     49.686000000000000
H      46.738399999999999     47.661400000000008     47.422199999999997
