18

C      47.800499999999992     47.980149999999988     47.276299999999992
C      47.870300000000000     48.079949999999997     48.870210000000000
C      46.681100000000001     47.379450000000006     46.550480000000007
C      46.876500000000000     47.447649999999996     49.689660000000003
C      48.764600000000002     48.574150000000003     46.494929999999997
C      49.121200000000002     48.655850000000001     49.336630000000000
C      45.644799999999996     46.858850000000004     47.409739999999999
C      45.870399999999997     46.863150000000005     48.869960000000006
C      49.814399999999992     49.471549999999993     47.070200000000000
C      49.969600000000000     49.485150000000004     48.406350000000003
H      46.623699999999999     47.176550000000006     45.314009999999996
H      46.505899999999997     47.782950000000000     50.685990000000004
H      48.773299999999999     48.463650000000001     45.446889999999996
H      49.273000000000003     48.491349999999997     50.298010000000005
H      44.936300000000003     46.069950000000006     46.950069999999997
H      45.182200000000002     46.482050000000001     49.695990000000009
H      50.434100000000001     49.793149999999997     46.529120000000006
H      51.063699999999997     49.930049999999994     48.721810000000005
