18

C      47.361554999999996     48.234599999999993     48.115499999999990
C      48.729855000000001     48.043499999999995     47.710899999999995
C      46.938545000000005     49.661200000000008     48.437200000000004
C      49.843954999999994     48.879100000000008     48.147199999999998
C      46.177014999999997     47.309600000000003     48.011099999999999
C      49.059094999999999     46.674700000000001     47.348600000000005
C      48.166145000000000     50.373099999999994     48.578800000000001
C      49.605225000000004     50.257599999999996     48.516999999999996
C      46.813905000000005     46.014399999999995     47.787999999999997
C      48.161135000000002     45.579799999999999     47.719899999999996
H      45.992554999999996     49.897300000000001     48.531700000000001
H      50.865544999999997     48.514099999999999     48.103899999999996
H      45.134455000000003     47.353300000000004     48.278199999999998
H      49.988145000000003     46.420600000000000     47.063699999999997
H      47.806424999999990     51.414400000000001     48.745000000000005
H      49.883335000000002     51.188800000000001     48.936300000000003
H      46.084035000000000     45.483599999999996     48.194000000000003
H      48.518584999999987     44.585599999999999     47.699399999999997
