18

C      48.518799999999992     47.961449999999999     47.945799999999991
C      47.223199999999999     48.527850000000001     47.941000000000003
C      49.471600000000009     48.349950000000007     49.008099999999999
C      46.913400000000003     49.373149999999995     49.127000000000010
C      49.127400000000009     47.061850000000007     46.879599999999996
C      46.513100000000001     48.307550000000006     46.677599999999998
C      48.952799999999996     48.817149999999998     50.306200000000004
C      47.733699999999999     49.634550000000004     50.220200000000006
C      48.123100000000001     46.648849999999996     45.968200000000010
C      46.962600000000002     47.395550000000000     45.585700000000003
H      50.545000000000002     48.071050000000000     48.880400000000009
H      46.073700000000002     49.940849999999998     48.761400000000009
H      49.766300000000001     46.453350000000000     46.666200000000003
H      45.454999999999998     48.783749999999998     46.665000000000006
H      49.390100000000004     49.174149999999997     51.246600000000001
H      47.427000000000000     50.213049999999996     51.100499999999997
H      48.233699999999999     45.786950000000004     45.230600000000010
H      46.275199999999998     46.893950000000004     44.753399999999999
