18

C      48.111249999999998     48.100849999999994     48.543949999999995
C      47.573250000000002     47.513649999999998     47.357450000000007
C      47.632050000000000     49.510750000000009     48.855849999999997
C      46.673550000000006     48.436149999999991     46.587849999999996
C      48.828150000000001     47.166150000000002     49.503350000000005
C      47.861050000000006     46.356850000000001     46.822650000000003
C      46.733250000000005     50.458149999999996     48.148450000000004
C      46.400350000000003     49.818149999999996     46.917149999999999
C      49.435349999999993     46.006050000000002     48.894250000000007
C      48.870550000000001     45.577550000000002     47.592750000000002
H      47.748050000000006     50.148550000000000     49.761850000000003
H      46.188250000000004     48.048549999999999     45.643250000000002
H      48.690250000000013     47.495249999999999     50.356749999999998
H      47.269750000000002     45.875450000000001     46.138449999999999
H      46.611450000000005     51.401750000000000     48.395350000000001
H      46.020350000000001     50.612550000000006     46.165849999999999
H      49.979649999999999     45.275449999999999     49.395149999999994
H      49.179050000000004     44.598250000000000     47.410850000000003
