56

C      46.987249999999996     48.629549999999995     49.076694999999987
C      47.588050000000010     47.435949999999998     49.704325000000011
C      50.798950000000005     47.488149999999997     45.634125000000012
C      51.790450000000007     46.810049999999997     46.548025999999993
C      47.812449999999998     47.768149999999999     48.190195000000003
C      49.906250000000000     46.343850000000003     50.133234999999999
C      49.562150000000003     47.584150000000001     46.394631000000004
C      51.369450000000001     46.689750000000004     47.905685000000005
C      49.099750000000000     47.243450000000003     47.746264999999994
C      50.158050000000003     46.636650000000003     48.758854999999997
C      46.252850000000009     47.950350000000000     50.154984999999996
C      42.614850000000004     46.814550000000004     50.867895000000004
C      42.691850000000002     46.655850000000001     52.251955000000009
C      48.655550000000005     46.950049999999997     50.606035000000006
C      50.754050000000007     48.555650000000007     44.472925000000004
C      51.970550000000003     48.129950000000001     42.363525000000024
C      53.187550000000002     46.455850000000005     46.335583999999997
C      43.701650000000001     47.345250000000000     50.136385000000004
C      47.529350000000008     49.789949999999997     49.644955000000010
C      44.855550000000008     47.814650000000000     50.826695000000001
C      50.909950000000009     46.001449999999998     51.116624999999999
C      50.057650000000010     45.750650000000000     52.386065000000002
C      48.823949999999996     46.846650000000004     52.209914999999995
C      48.380949999999999     48.238550000000004     45.606124999999992
C      48.681650000000005     49.763650000000005     44.906425000000027
C      49.698949999999996     49.529550000000008     44.091725000000011
C      48.516649999999998     50.596350000000001     45.992040000000003
C      47.600650000000002     46.385750000000002     53.190304999999995
C      47.369250000000008     50.319650000000003     44.074524999999994
H      52.194950000000006     47.045850000000002     43.952825000000004
H      52.160350000000008     46.056450000000005     48.442515000000000
H      41.843850000000003     46.834750000000007     49.979335000000006
H      51.872550000000004     49.037450000000000     41.799724999999995
H      43.559049999999999     47.511650000000003     49.067594999999997
H      47.739249999999998     49.538649999999997     50.658095000000003
H      47.986850000000004     50.440549999999995     49.165494999999993
H      44.780749999999998     47.232850000000006     51.744895000000000
H      51.368350000000007     45.012149999999998     50.871714999999995
H      51.560050000000004     46.814850000000000     51.239594999999994
H      50.804850000000002     45.603349999999999     53.232195000000004
H      49.710050000000010     44.499950000000005     52.357335000000006
H      49.166150000000002     47.792350000000006     52.635195000000010
H      48.137950000000004     47.509950000000003     44.688925000000012
H      47.300150000000002     48.106150000000007     46.159796000000000
H      50.113250000000008     50.234450000000002     43.390925000000024
H      48.046650000000000     45.509950000000003     53.909665000000004
H      46.831950000000006     45.791249999999998     52.476785000000007
H      47.426950000000005     47.125549999999997     54.200275000000005
H      47.219050000000010     49.734349999999999     43.181125000000009
H      47.536749999999998     51.500049999999995     43.770425000000003
H      46.489550000000008     50.207450000000001     44.550725000000000
H      52.522649999999999     47.334550000000000     41.808125000000004
N      51.652650000000008     47.912550000000003     43.651624999999996
O      48.796950000000010     51.323850000000000     46.806335000000004
O      42.481049999999996     46.265650000000001     53.261915000000002
O      54.156149999999997     46.450650000000003     45.777942499999995
