6

C      48.650249999999993     48.141899999999993     47.911850000000001
C      47.435050000000004     47.781500000000001     48.223450000000000
H      48.811750000000004     49.167600000000000     47.562550000000002
H      49.415250000000000     47.561599999999999     47.921949999999995
H      46.584750000000000     48.267999999999994     48.257249999999999
H      47.081650000000010     46.832400000000000     48.437449999999998
