18

C      48.505050000000004     47.711299999999994     47.449999999999996
C      47.825350000000000     48.745599999999996     48.338800000000006
C      47.716149999999999     47.224999999999994     46.256000000000000
C      46.539250000000010     49.275699999999986     48.306200000000004
C      49.568950000000001     46.959999999999994     48.001300000000001
C      48.411950000000004     49.228499999999997     49.635400000000004
C      46.418850000000006     47.893299999999996     45.993000000000002
C      45.960149999999999     48.867000000000004     46.947600000000001
C      49.959950000000006     47.207499999999996     49.358000000000004
C      49.454050000000009     48.400999999999996     50.015400000000000
H      48.075550000000007     46.400899999999993     45.553800000000003
H      46.083250000000007     49.432499999999990     49.203600000000009
H      49.781350000000003     45.989400000000003     47.334800000000001
H      47.919650000000004     50.010599999999997     50.309899999999999
H      45.786050000000003     47.620800000000003     44.981200000000001
H      45.234650000000002     49.576299999999989     47.115200000000002
H      50.765349999999998     46.754499999999993     49.930600000000005
H      50.027050000000003     48.529100000000000     51.018799999999999
