18

C      48.041499999999992     48.619399999999999     47.884799999999984
C      47.658400000000000     47.244999999999997     48.143299999999996
C      47.474800000000002     49.423400000000008     46.752300000000005
C      46.535200000000003     46.727499999999999     47.478200000000001
C      49.473699999999994     48.866900000000008     48.145400000000009
C      48.261200000000002     46.579400000000000     49.195499999999996
C      46.231999999999999     48.896800000000006     46.353499999999997
C      45.685999999999993     47.610999999999997     46.743600000000001
C      50.263199999999998     47.978400000000001     48.934200000000004
C      49.630099999999999     46.833400000000005     49.587500000000006
H      48.022099999999995     50.273299999999999     46.148299999999992
H      46.061700000000002     45.726700000000001     47.828999999999994
H      49.988500000000002     49.655300000000004     47.593099999999993
H      47.604100000000003     46.081300000000006     49.884399999999999
H      45.553299999999993     49.299399999999999     45.632899999999992
H      44.719300000000004     47.152499999999996     46.578800000000001
H      51.280699999999996     48.237000000000002     49.372699999999995
H      49.969600000000000     46.124000000000002     50.367100000000008
