18

C      48.519700000000000     48.121399999999987     47.572099999999992
C      47.375800000000005     48.267099999999999     48.558399999999999
C      48.927200000000006     46.655299999999997     47.476700000000001
C      46.932600000000001     47.125500000000002     49.272300000000008
C      48.899300000000004     49.314999999999998     46.835299999999997
C      47.011900000000004     49.712699999999998     48.875300000000003
C      48.706899999999997     45.532799999999995     48.355799999999995
C      47.729999999999997     45.970299999999995     49.348799999999997
C      47.946300000000001     50.338200000000001     46.645199999999996
C      46.865699999999997     50.575400000000002     47.698500000000003
H      49.766399999999997     46.610200000000006     46.658400000000000
H      46.233600000000003     47.004700000000000     50.043900000000001
H      49.649900000000009     49.268100000000004     46.085500000000003
H      46.515999999999998     50.066599999999994     49.782000000000004
H      49.282299999999999     44.567599999999999     48.320799999999998
H      47.395699999999998     45.065500000000000     50.027899999999995
H      48.414999999999999     50.911000000000001     45.956099999999999
H      46.302700000000009     51.432400000000001     47.445500000000003
