5

C      48.361609999999992     48.147949999999994     47.855349999999987
H      47.262140000000002     48.038150000000002     47.797049999999999
H      48.737859999999998     47.165849999999999     47.610749999999996
H      48.300989999999999     48.160849999999989     48.987650000000002
H      48.614399999999996     48.834150000000001     47.012349999999998
