18

C      47.126754999999989     48.363999999999990     48.204499999999996
C      47.998254999999993     47.722599999999993     47.186099999999996
C      46.829155000000000     49.691300000000005     47.994900000000001
C      49.220855000000000     48.445799999999998     46.715500000000006
C      46.438654999999997     47.421100000000003     48.909699999999987
C      47.967054999999995     46.312300000000000     46.727999999999994
C      47.959654999999998     50.550699999999999     47.456900000000005
C      48.960555000000006     49.877100000000006     46.740799999999993
C      46.512654999999995     46.021399999999993     48.604799999999997
C      47.256554999999999     45.264400000000002     47.510599999999997
H      45.909344999999995     50.266500000000001     48.216999999999999
H      50.090655000000005     48.130699999999997     46.273799999999994
H      46.056484999999995     47.496900000000004     50.054299999999998
H      48.845554999999997     45.851999999999997     46.257999999999996
H      47.935054999999998     51.599100000000000     47.891000000000005
H      49.584854999999997     50.715100000000000     45.945700000000002
H      45.936374999999998     45.176899999999996     49.084299999999999
H      47.813754999999993     44.400900000000000     47.691400000000002
