18

C      48.149649999999994     47.589149999999997     47.775439999999989
C      47.994750000000003     48.801650000000009     48.606560000000002
C      49.078349999999993     47.349350000000001     46.691999999999993
C      49.157049999999998     49.584550000000007     48.486609999999999
C      47.288249999999998     46.530350000000006     48.197550000000007
C      46.718550000000000     49.009550000000004     49.284350000000003
C      50.175249999999998     48.306350000000009     46.821110000000004
C      50.182050000000004     49.512450000000001     47.445719999999994
C      46.004150000000003     46.650650000000006     48.887799999999999
C      45.787550000000003     47.962850000000003     49.424689999999998
H      49.341749999999998     46.447650000000010     46.000529999999998
H      49.265149999999998     50.738450000000000     48.566630000000004
H      46.973250000000000     45.261550000000000     47.749650000000003
H      46.354250000000000     49.847050000000010     49.997609999999995
H      51.136749999999999     48.061650000000000     46.269509999999997
H      51.120649999999998     50.084950000000006     47.416960000000003
H      45.463349999999998     45.782250000000005     48.968059999999994
H      44.863250000000001     48.266150000000010     49.999470000000002
