18

C      48.049849999999992     47.847149999999992     48.422049999999992
C      47.350350000000006     48.733750000000001     47.342449999999999
C      47.588050000000010     47.603149999999999     49.795549999999992
C      46.094350000000006     49.436049999999994     47.813549999999992
C      48.912250000000000     46.780549999999998     47.934950000000001
C      47.958550000000002     48.556349999999995     45.973949999999995
C      46.534250000000000     48.587249999999997     50.034549999999996
C      46.086950000000002     49.667249999999996     49.315950000000001
C      49.666950000000000     46.575149999999994     46.698750000000004
C      49.037850000000006     47.496150000000000     45.754649999999998
H      47.781649999999999     46.738549999999996     50.452050000000000
H      45.678449999999998     50.310050000000004     47.437650000000005
H      49.525250000000014     46.148249999999997     48.595349999999996
H      47.597149999999999     49.148949999999999     45.069049999999997
H      46.340550000000007     48.555949999999996     51.023550000000000
H      45.700950000000006     50.277349999999998     49.871250000000003
H      50.321550000000002     45.689949999999996     46.459850000000003
H      49.647150000000011     47.103549999999998     44.976450000000000
