18

C      48.644815999999985     48.661399999999986     48.643899999999988
C      48.618117999999988     48.698699999999988     47.106899999999996
C      49.409229999999994     47.628399999999999     49.355999999999995
C      49.111569999999986     47.536299999999997     46.476099999999988
C      47.652069999999988     49.245500000000007     49.508399999999980
C      47.530570000000026     49.560000000000002     46.520899999999997
C      49.959009999999992     46.461399999999998     48.537499999999994
C      49.614659999999994     46.388399999999990     47.164499999999990
C      46.523070000000004     49.859600000000000     48.890599999999992
C      46.620870000000011     50.169100000000000     47.428399999999996
H      49.433439999999990     47.637799999999999     50.462099999999992
H      49.085939999999994     47.614199999999997     45.427199999999999
H      47.891081899999989     48.911999999999992     50.572800000000001
H      47.194869999999987     49.573799999999991     45.487199999999987
H      50.348229999999994     45.477699999999999     48.804799999999986
H      50.197799999999987     45.459999999999994     46.937100000000001
H      45.699469999999991     50.292499999999990     49.534399999999991
H      45.651770000000006     50.540000000000006     47.044499999999999
