18

C      48.539399999999986     48.240949999999991     48.341099999999997
C      47.467199999999998     47.742649999999998     47.657399999999996
C      49.239699999999992     49.389349999999993     47.736000000000004
C      46.903900000000000     48.605049999999999     46.588700000000003
C      49.078200000000002     47.480950000000000     49.419999999999987
C      46.593899999999998     46.731649999999995     48.328999999999994
C      48.866799999999991     50.024149999999999     46.501800000000003
C      47.669000000000004     49.643450000000001     45.996600000000001
C      48.337600000000002     46.318750000000001     49.927700000000002
C      47.041099999999993     45.979250000000000     49.421999999999997
H      50.385500000000000     49.538750000000000     47.986999999999995
H      45.946800000000003     48.549650000000000     45.978200000000001
H      50.022399999999998     47.549450000000000     49.802599999999998
H      45.614500000000000     46.478749999999998     48.003399999999999
H      49.470499999999994     50.733750000000001     46.068399999999997
H      47.487800000000000     50.285250000000005     45.260400000000004
H      48.865000000000002     45.868949999999998     50.739599999999996
H      46.446999999999996     45.266249999999999     49.729699999999994
