70

C      48.329999999999998     46.625599999999991     47.669549999999994
C      46.943900000000006     47.101099999999995     47.862349999999992
C      49.498600000000003     49.384700000000002     50.280349999999999
C      49.315300000000001     47.027899999999995     48.810550000000006
C      46.334900000000012     47.932800000000007     48.982750000000003
C      50.182700000000004     51.716900000000003     50.391550000000002
C      50.102000000000011     53.180500000000002     49.882350000000002
C      50.537500000000001     50.363300000000002     50.624250000000004
C      49.106300000000012     48.186500000000002     49.799549999999996
C      48.813600000000001     45.784999999999997     46.673250000000003
C      47.721499999999999     45.312600000000003     45.731949999999998
C      46.337900000000012     45.791100000000000     45.706550000000000
C      46.031300000000009     46.652799999999992     46.749949999999998
C      50.221000000000011     45.057200000000002     46.807650000000002
C      50.148299999999999     43.759700000000002     46.130250000000004
C      48.088300000000011     44.145600000000002     44.922849999999997
C      51.057900000000011     45.420499999999997     47.973250000000000
C      50.658999999999999     46.570999999999998     48.786749999999998
C      49.982400000000005     51.504200000000004     51.801950000000005
C      51.549100000000003     51.039099999999998     49.716849999999994
C      45.889699999999998     49.141100000000002     48.440449999999998
C      44.553800000000003     48.807400000000008     47.449849999999998
C      45.149300000000004     47.823700000000009     46.197050000000004
C      45.212400000000009     45.012999999999998     44.881250000000001
C      45.770900000000005     43.375599999999999     44.770650000000003
C      47.054400000000008     43.546300000000002     44.129649999999998
C      51.356800000000000     46.897700000000007     50.059849999999997
C      45.606700000000011     48.843300000000006     49.808350000000004
C      44.082900000000002     48.955000000000005     50.162649999999999
C      43.861000000000011     50.138399999999997     51.399950000000004
C      45.157400000000003     48.522399999999998     44.747050000000002
C      46.676600000000001     50.351300000000002     47.917250000000010
C      48.373899999999999     48.794500000000006     51.134349999999998
C      45.229900000000008     50.550699999999999     51.924149999999997
H      49.563700000000004     42.205700000000000     44.885249999999999
H      49.065200000000011     53.644700000000000     49.901849999999996
H      50.834499999999998     53.794300000000000     50.604450000000000
H      51.944800000000008     44.874099999999999     48.258250000000004
H      50.894600000000004     51.658499999999997     52.481450000000009
H      49.019800000000011     51.306699999999999     52.376150000000010
H      52.624800000000000     50.898400000000002     50.103549999999998
H      51.695700000000009     50.492300000000007     48.817149999999998
H      44.643900000000009     49.546199999999992     46.937350000000002
H      43.569800000000008     48.724800000000002     47.791250000000005
H      43.988599999999998     47.296299999999995     46.445450000000001
H      45.295400000000008     45.674100000000003     44.033149999999999
H      44.455100000000009     45.209200000000003     45.343249999999998
H      44.944900000000011     42.706800000000001     44.431350000000002
H      45.690500000000007     43.188699999999997     45.897250000000000
H      46.831499999999998     44.004399999999997     43.242350000000002
H      47.606900000000003     42.431600000000003     43.778750000000002
H      50.944600000000001     43.172100000000000     46.495450000000005
H      50.453200000000002     53.303699999999999     48.798150000000007
H      43.646999999999998     49.530200000000001     49.256450000000001
H      43.657800000000002     47.981699999999996     50.280950000000004
H      43.433100000000003     51.036499999999997     50.947050000000004
H      45.625100000000010     49.583499999999994     52.401350000000001
H      43.375200000000000     49.756799999999991     52.120450000000005
H      45.998700000000007     47.877699999999997     44.288750000000000
H      45.731700000000011     49.603700000000011     44.817350000000005
H      44.252200000000009     48.817700000000009     44.205750000000002
H      45.800699999999999     50.943800000000003     48.048050000000003
H      46.832799999999999     50.232500000000002     46.963350000000005
H      47.582200000000007     50.449900000000007     48.539850000000001
H      48.394400000000012     49.273999999999994     52.123549999999994
H      47.567700000000009     48.147900000000000     51.061350000000004
H      45.278700000000008     51.193100000000001     52.757649999999998
H      45.699900000000007     50.830300000000001     51.111450000000005
N      49.334200000000003     43.365099999999998     45.200450000000004
O      51.840499999999999     47.375799999999991     50.966149999999999
