42

C      47.400599999999990     48.436449999999994     48.571689999999990
C      48.832399999999993     48.878449999999994     48.765399999999993
C      50.834199999999996     45.148249999999997     46.113270000000000
C      47.188199999999995     47.397250000000000     47.615319999999997
C      50.113399999999992     48.308550000000004     48.106909999999999
C      48.550199999999990     45.625850000000000     45.818739999999998
C      48.439499999999995     46.634549999999997     46.992390000000000
C      49.910399999999989     47.148649999999996     47.307549999999999
C      46.178099999999993     48.959849999999996     49.362299999999998
C      46.561999999999998     49.897349999999996     50.372520000000002
C      47.790399999999998     50.595950000000002     50.361809999999998
C      48.821699999999993     50.143650000000001     49.454439999999998
C      44.972099999999998     48.252450000000003     48.924950000000003
C      45.368299999999998     50.442550000000004     51.006259999999997
C      44.315599999999996     50.663649999999997     51.630699999999997
C      45.989499999999992     46.731749999999998     47.144849999999998
C      44.971999999999994     47.195749999999997     48.017710000000001
C      51.280599999999993     48.962449999999997     48.766950000000001
C      51.114500000000007     50.587550000000000     48.859850000000002
C      49.934799999999989     51.213450000000002     49.222059999999992
C      47.972499999999997     46.758050000000004     45.396560000000001
C      49.522699999999993     44.588950000000004     45.639170000000000
C      47.659899999999993     45.112050000000004     44.686180000000000
H      44.364899999999999     51.667049999999996     51.891680000000001
H      47.931199999999990     51.392450000000004     51.107970000000002
H      43.855799999999995     49.949549999999995     52.365140000000004
H      45.903099999999995     45.816449999999996     46.475589999999997
H      43.811999999999998     46.909150000000004     47.976549999999996
H      44.202699999999993     48.506850000000007     49.723210000000002
H      52.188000000000002     48.877249999999997     48.292560000000002
H      51.427199999999992     48.588249999999995     49.789819999999999
H      51.485899999999987     50.749850000000002     47.806240000000003
H      51.722399999999993     51.324149999999996     49.576250000000002
H      49.539199999999994     51.959650000000003     48.539380000000001
H      50.181499999999993     51.640949999999997     50.336580000000005
H      51.860500000000002     44.537250000000000     45.953580000000002
H      48.543999999999997     47.642550000000000     44.948450000000001
H      49.685799999999993     44.040349999999997     44.762180000000001
H      47.396599999999992     44.132750000000001     44.551229999999997
H      47.734999999999992     45.619050000000001     43.634859999999996
H      51.953199999999981     46.677750000000003     46.988740000000000
N      50.946300000000008     46.388050000000000     46.861179999999997
