18

C      48.440899999999992     48.311120999999986     48.405099999999990
C      47.718800000000002     47.499972000000000     47.609499999999997
C      48.873699999999999     47.806721999999993     49.738600000000005
C      47.008099999999999     46.319405000000003     48.071700000000007
C      49.188500000000005     49.423674999999989     47.963300000000004
C      47.462299999999999     47.983042999999995     46.218800000000002
C      47.923800000000000     46.882405000000006     50.335000000000008
C      47.158799999999999     46.023405000000011     49.503500000000003
C      49.019000000000005     49.866144999999989     46.655000000000001
C      48.258300000000006     49.045394999999999     45.820999999999998
H      49.521000000000001     48.469125000000005     50.644400000000005
H      46.193899999999999     45.630205000000004     47.726100000000002
H      49.806100000000001     50.033734999999993     48.687300000000008
H      46.793999999999997     47.349104999999994     45.527900000000002
H      48.411100000000005     46.582305000000019     51.371200000000002
H      46.506900000000002     45.189805000000007     49.671999999999997
H      49.553899999999999     50.810194999999993     46.365800000000007
H      48.144599999999997     49.535674999999998     44.628799999999998
