18

C      48.562449999999998     47.704499999999996     47.822999999999993
C      47.291650000000004     48.260200000000005     47.429800000000000
C      49.622750000000003     48.575000000000010     48.051299999999998
C      47.210050000000003     49.714800000000004     47.256199999999993
C      48.756350000000005     46.367000000000004     48.613399999999999
C      46.201150000000005     47.193600000000004     47.284499999999994
C      49.591249999999995     49.955000000000005     48.083799999999982
C      48.380150000000000     50.562500000000000     47.485999999999990
C      47.710250000000002     45.373800000000003     48.322699999999983
C      46.393950000000004     45.857700000000001     47.795000000000002
H      50.421950000000002     47.965100000000000     48.527499999999989
H      46.325450000000004     50.305399999999999     46.835399999999993
H      49.524150000000013     46.433000000000000     49.285600000000002
H      45.323450000000001     47.299700000000001     46.714399999999998
H      50.676549999999999     50.554000000000009     48.555399999999992
H      48.192950000000003     51.600400000000000     47.679000000000002
H      47.489350000000002     44.399600000000000     48.815899999999985
H      45.618150000000000     44.878800000000005     47.574599999999990
