6

C      47.967749999999988     48.650999999999996     48.042004999999989
C      48.187950000000001     47.353799999999993     48.001705000000001
H      48.140150000000006     49.163799999999995     47.168364999999994
H      47.481949999999998     49.285100000000000     48.921004999999994
H      48.518050000000002     46.714900000000000     47.078995000000006
H      47.560350000000000     46.853600000000000     48.788804999999996
