18

C      48.299999999999997     47.365199999999994     47.739149999999988
C      47.805400000000006     48.731400000000008     48.214849999999998
C      49.580900000000000     47.109800000000007     47.106449999999995
C      48.458299999999994     49.861999999999995     47.619349999999997
C      47.454800000000006     46.233400000000003     48.144149999999996
C      46.540599999999998     49.003100000000003     48.804450000000003
C      50.209199999999996     48.363500000000002     46.702749999999995
C      49.822900000000004     49.725200000000001     47.037649999999999
C      46.211100000000002     46.415900000000008     48.776949999999999
C      45.844399999999993     47.752499999999998     49.069050000000004
H      50.074299999999994     46.106900000000003     46.982749999999996
H      47.953400000000002     50.926800000000000     47.544049999999999
H      47.362399999999994     45.073200000000000     47.995850000000004
H      46.272400000000005     49.936099999999996     48.853149999999999
H      51.212699999999998     48.555599999999998     46.412250000000000
H      50.121399999999994     50.401300000000006     46.305149999999998
H      45.645099999999999     45.464399999999998     49.086050000000000
H      44.787300000000002     47.485799999999998     49.694850000000002
