18

C      48.426777499999986     47.811349999999990     47.652949999999990
C      47.482577500000005     48.778549999999996     48.400649999999992
C      48.866203499999997     47.991249999999994     46.235950000000003
C      47.375177499999992     50.084750000000000     47.811650000000000
C      48.579447500000001     46.547550000000001     48.100749999999998
C      47.373377500000004     48.335849999999994     49.787550000000003
C      48.801373500000011     49.259249999999994     45.775250000000000
C      48.033677499999996     50.214649999999992     46.541850000000004
C      48.006177499999993     45.907550000000001     49.385250000000006
C      47.836277499999994     47.018450000000001     50.334550000000000
H      49.096977500000008     47.184749999999994     45.627650000000003
H      46.781677500000001     51.064750000000004     48.065849999999998
H      49.218322499999999     45.817449999999994     47.600050000000003
H      46.950277499999999     48.949050000000000     50.489849999999997
H      48.951511499999995     49.450149999999994     44.679250000000003
H      47.887877500000002     51.220950000000002     46.193049999999999
H      48.067177500000000     44.779049999999998     49.515549999999998
H      47.730977499999995     46.813749999999999     51.320749999999997
