18

C      47.459244999999989     46.936949999999996     48.045244999999973
C      48.321905000000001     47.916250000000005     47.627222999999979
C      47.106065000000001     47.097749999999991     49.303624999999982
C      48.586404999999999     49.267749999999992     48.286984999999987
C      46.692094999999995     46.244249999999994     47.121524999999984
C      49.087404999999990     47.488249999999994     46.505725000000005
C      47.491474999999994     48.241749999999996     50.097514999999987
C      47.975804999999994     49.465750000000000     49.498894999999990
C      46.938265000000001     46.113050000000001     45.685324999999992
C      48.322104999999993     46.550049999999999     45.732625000000006
H      46.564884999999997     46.241550000000004     49.902654999999982
H      49.217304999999996     49.905950000000004     47.666087999999981
H      45.944694999999996     45.767650000000003     47.707833999999984
H      50.055305000000004     47.519049999999993     46.226325000000003
H      47.084694999999996     48.360950000000003     51.155274999999989
H      48.087204999999997     50.375450000000001     50.111924999999978
H      46.351214999999996     45.624549999999999     44.844725000000011
H      48.944105000000000     45.783149999999992     45.060424999999967
