18

C      48.648249999999990     48.554949999999998     48.000099999999989
C      47.564850000000007     47.390250000000009     47.916800000000009
C      48.581350000000000     49.750350000000012     47.200299999999999
C      46.376350000000002     47.709750000000000     47.118700000000004
C      49.732249999999993     48.422350000000009     49.024800000000013
C      47.915049999999994     45.992450000000005     48.383200000000002
C      47.350750000000005     49.827350000000010     46.494900000000001
C      46.206050000000005     48.915850000000006     46.391700000000000
C      49.802149999999997     47.120249999999999     49.565600000000003
C      48.936350000000004     45.917150000000007     49.321200000000005
H      49.300450000000012     50.628650000000007     47.295100000000005
H      45.755849999999995     46.857950000000002     46.909199999999998
H      50.528850000000006     49.131150000000005     49.042500000000004
H      47.246949999999998     45.050550000000001     48.291899999999998
H      47.126450000000006     50.949449999999999     46.210400000000007
H      45.471149999999994     49.301050000000004     45.573099999999997
H      50.513549999999995     46.734050000000003     50.426900000000003
H      49.218150000000009     45.152050000000003     49.923800000000014
