6

C      47.887100000000004     47.152769999999997     48.026999999999987
C      48.283100000000012     48.421730000000004     48.308599999999998
H      48.489800000000010     46.790070000000000     47.173099999999991
H      46.782800000000002     46.808350000000004     48.186100000000010
H      49.217199999999998     48.783830000000002     47.803299999999993
H      47.861000000000011     49.209930000000000     48.826900000000009
