110

C      48.683899999999994     46.156849999999991     51.057999999999986
C      49.249100000000006     45.684349999999995     49.759099999999997
C      51.036400000000008     50.097449999999995     50.641299999999994
C      49.029599999999995     47.419950000000000     51.768199999999993
C      50.243199999999995     46.631249999999994     49.302199999999992
C      50.006000000000000     49.668849999999992     51.591699999999996
C      51.057800000000000     49.301949999999991     49.499099999999991
C      49.591500000000003     48.413849999999996     51.096299999999999
C      50.255000000000003     48.087850000000003     49.727499999999992
C      47.577300000000001     45.288650000000004     51.692099999999996
C      46.918300000000002     44.087850000000003     51.124799999999993
C      47.696100000000001     43.660349999999994     49.918099999999995
C      48.726599999999998     44.412949999999995     49.219199999999994
C      46.766200000000005     45.775649999999999     52.899699999999996
C      45.607000000000006     44.990549999999999     53.359499999999997
C      45.331099999999999     43.634649999999993     53.037499999999994
C      45.892500000000005     43.256550000000004     51.765599999999992
C      48.441700000000004     47.855449999999990     53.270099999999992
C      47.069600000000001     42.530450000000002     49.025499999999994
C      47.621200000000002     42.170850000000002     47.574599999999997
C      48.977600000000002     42.961749999999995     47.180799999999991
C      49.590600000000002     44.035550000000001     48.027799999999992
C      45.669800000000002     41.947749999999999     50.893899999999995
C      46.275600000000004     41.479450000000000     49.696499999999993
C      50.565100000000008     45.052149999999997     47.317799999999991
C      50.798400000000001     46.256850000000000     48.050399999999996
C      47.832300000000004     49.157049999999984     53.266199999999991
C      45.740400000000001     50.815249999999992     53.158599999999993
C      44.929900000000004     40.874650000000003     51.715799999999987
C      46.620899999999999     49.688149999999993     52.691899999999990
C      51.726199999999999     44.457549999999998     46.570099999999996
C      46.304600000000001     43.089349999999996     47.866199999999992
C      49.160900000000005     44.635649999999998     46.701099999999997
C      44.652000000000001     45.329449999999994     54.366399999999985
C      46.784200000000006     50.775149999999996     46.696999999999996
C      46.872900000000001     52.298249999999996     46.340399999999995
C      44.462700000000005     52.388649999999998     50.405699999999996
C      46.365400000000001     50.213849999999994     47.993399999999994
C      46.074199999999998     53.157349999999994     47.260599999999997
C      45.028799999999997     51.015749999999997     50.116799999999991
C      45.691000000000003     51.297150000000002     48.858099999999993
C      45.594299999999997     52.696549999999988     48.482099999999996
C      47.018400000000007     49.766750000000002     45.738199999999992
C      47.332600000000006     50.172049999999999     44.303199999999997
C      47.928400000000003     51.555149999999998     44.117699999999992
C      47.487200000000001     52.598050000000001     45.043999999999997
C      47.108100000000000     48.404949999999999     46.089899999999993
C      46.732000000000006     47.612749999999991     44.797899999999991
C      47.179700000000004     47.936849999999993     43.466899999999995
C      47.398299999999999     49.309749999999994     43.131599999999992
C      46.344500000000004     47.871449999999996     47.338699999999996
C      45.872599999999998     48.845749999999995     48.241999999999997
C      44.599700000000006     48.778750000000002     49.311599999999991
C      45.030099999999997     49.509049999999988     50.558699999999995
C      45.909799999999997     54.548949999999991     46.719699999999996
C      46.094600000000007     54.787849999999992     45.249699999999997
C      47.432600000000001     54.180949999999996     44.625399999999992
C      46.302500000000002     49.379349999999988     51.391899999999993
C      47.295200000000001     49.830749999999995     41.629699999999993
C      43.974700000000006     49.000249999999994     51.628999999999991
C      48.667700000000004     48.385049999999993     46.506299999999996
H      49.613500000000009     50.223450000000000     52.434899999999985
H      51.785400000000003     49.618249999999989     48.809499999999993
H      51.614799999999995     50.949449999999999     50.932799999999993
H      44.586900000000007     43.060749999999999     53.538399999999996
H      47.399800000000006     41.043849999999992     47.124899999999997
H      46.208100000000002     40.232249999999993     49.507199999999997
H      49.402999999999999     47.962749999999986     54.023799999999994
H      44.797600000000003     50.675349999999995     52.854299999999995
H      45.550800000000002     51.198750000000004     54.230299999999986
H      45.852899999999998     51.436749999999989     52.363599999999991
H      47.677300000000002     49.944349999999986     54.192399999999992
H      52.570900000000002     44.494249999999994     47.144599999999997
H      51.533500000000011     43.552949999999996     46.065399999999997
H      51.790699999999994     45.160449999999997     45.763399999999997
H      45.902000000000001     44.037750000000003     48.464199999999991
H      49.793399999999998     42.346149999999994     46.957599999999992
H      45.416000000000004     42.699649999999991     47.766099999999994
H      51.619899999999994     46.995149999999995     47.687099999999994
H      48.315100000000001     45.598349999999996     46.735399999999991
H      44.984100000000005     46.107649999999992     54.853299999999990
H      44.418500000000002     44.242049999999992     54.856700000000004
H      43.728900000000003     45.889349999999993     53.896699999999996
H      43.962300000000006     52.749949999999998     51.239299999999986
H      48.685099999999998     51.748049999999992     43.519499999999994
H      46.289300000000004     46.543449999999993     44.952999999999996
H      46.937500000000007     47.090249999999997     42.704199999999993
H      45.847500000000004     46.804349999999985     47.421499999999995
H      43.567799999999998     48.840649999999997     48.997699999999995
H      44.634900000000002     47.858350000000002     49.499699999999997
H      46.912900000000000     55.095749999999995     47.165599999999991
H      45.931800000000003     55.982050000000001     44.773199999999996
H      45.239500000000000     54.136650000000003     44.690799999999996
H      48.201400000000000     54.819749999999999     45.225999999999992
H      47.992400000000004     54.564349999999990     43.667499999999997
H      46.779100000000007     46.909250000000000     54.667199999999994
H      46.781900000000000     48.670449999999988     50.777899999999995
H      46.458800000000004     50.411649999999995     41.373599999999996
H      48.313700000000004     50.269349999999989     41.221599999999995
H      46.826900000000002     48.884749999999997     41.143299999999996
H      44.412900000000000     48.802250000000001     52.656899999999993
H      43.502100000000006     48.222849999999994     51.000399999999992
H      43.429099999999998     49.956350000000000     51.827799999999996
H      48.540900000000001     47.902649999999994     47.583599999999997
H      49.469200000000001     47.760649999999998     45.865799999999993
H      49.697899999999997     49.105449999999990     46.593799999999995
H      44.950499999999998     55.013649999999998     47.248899999999992
N      47.080199999999998     46.802750000000003     53.623899999999992
N      44.891300000000001     53.333050000000000     49.502099999999992
O      44.604900000000001     40.017949999999999     52.277199999999993
