18

C      48.375949999999996     48.841099999999990     48.160849999999982
C      47.970050000000001     47.399000000000001     48.298249999999989
C      49.502049999999997     49.339399999999998     47.477649999999990
C      49.102949999999993     46.481200000000001     47.898549999999993
C      47.213650000000001     49.617699999999999     48.576149999999991
C      46.551450000000003     46.930199999999999     48.491749999999989
C      50.471649999999997     48.327099999999994     47.040249999999993
C      50.401250000000005     46.932099999999998     47.281649999999992
C      46.006749999999997     49.335200000000000     49.337249999999990
C      45.619450000000001     47.887599999999999     49.136949999999992
H      49.432450000000003     50.484600000000000     47.222249999999995
H      48.747149999999991     45.488299999999995     48.021749999999990
H      47.606250000000003     50.511700000000005     48.527349999999991
H      45.843149999999994     45.835399999999993     48.385549999999988
H      51.263249999999999     48.524099999999997     46.259650000000001
H      51.174250000000001     46.123599999999996     47.167249999999989
H      45.364149999999995     50.094600000000000     49.740349999999999
H      44.736750000000001     47.713400000000000     49.592250000000000
