45

C      49.747599999999991     50.202199999999991     48.855549999999994
C      50.994400000000006     49.686099999999996     49.497650000000000
C      47.553400000000003     45.814599999999999     49.624049999999990
C      48.878999999999998     45.115099999999998     49.926150000000000
C      48.558699999999995     49.329399999999993     48.960549999999991
C      51.032400000000003     48.319900000000004     49.909149999999990
C      47.240099999999998     47.155799999999999     49.359249999999996
C      50.017199999999995     45.954200000000000     49.853450000000002
C      48.476199999999999     48.030299999999997     49.529449999999990
C      49.877599999999994     47.390000000000001     49.843849999999996
C      49.921900000000001     51.332899999999995     47.908749999999991
C      51.190700000000000     51.903199999999998     47.608449999999998
C      52.194399999999995     51.234799999999993     48.369349999999990
C      46.302799999999998     45.032600000000002     49.861449999999998
C      46.356899999999996     43.651399999999995     50.096649999999990
C      47.652700000000003     42.953800000000001     50.153649999999992
C      48.980100000000000     43.692800000000005     50.150249999999993
C      48.563399999999994     51.705200000000005     47.303649999999998
C      48.358799999999995     52.744700000000009     46.339049999999993
C      49.754100000000001     53.322800000000001     46.038850000000004
C      51.150100000000002     52.874799999999993     46.476549999999996
C      47.304200000000002     51.264200000000002     47.996949999999991
C      47.256299999999996     49.924899999999994     48.556750000000001
C      46.014000000000003     49.249799999999993     48.749549999999992
C      46.034599999999998     47.830500000000001     48.910549999999994
C      44.503200000000000     47.617300000000000     48.518650000000001
C      43.753999999999998     46.145399999999995     48.714649999999999
H      51.870100000000001     47.897300000000001     50.344249999999995
H      50.917700000000004     45.393100000000004     50.023249999999997
H      53.210000000000001     51.972900000000010     48.218349999999994
H      45.655700000000003     45.611199999999997     49.459349999999993
H      45.443799999999996     43.108400000000003     50.149849999999994
H      47.706099999999999     42.088899999999995     50.763150000000003
H      49.814699999999995     43.127899999999997     50.511649999999996
H      47.457299999999996     53.049300000000002     45.826950000000004
H      50.107300000000002     53.911100000000005     45.236849999999997
H      52.087699999999991     53.428200000000004     46.839049999999993
H      46.121899999999997     51.819400000000002     47.930749999999996
H      45.034799999999997     49.884500000000003     48.663850000000004
H      43.816699999999997     48.279100000000000     49.183749999999996
H      44.601599999999998     47.965500000000006     47.391349999999996
H      43.365000000000002     46.277599999999993     49.713850000000001
H      42.789999999999999     45.651899999999998     48.213450000000002
H      44.624899999999997     45.552499999999995     48.550350000000002
N      52.163100000000007     50.403899999999993     49.407449999999990
