18

C      48.701399999999992     48.248034999999994     47.723649999999992
C      47.332599999999992     47.886225000000003     48.054450000000003
C      49.683799999999998     48.659275000000008     48.803450000000012
C      47.018699999999988     47.372055000000003     49.334750000000000
C      49.077199999999998     48.571455000000000     46.338250000000002
C      46.288899999999991     47.412255000000002     47.152150000000006
C      49.112999999999992     48.516194999999996     50.201149999999998
C      48.006499999999996     47.618385000000004     50.319550000000007
C      47.941699999999990     48.376185000000007     45.555449999999993
C      46.711300000000001     47.702075000000001     45.782950000000000
H      50.702700000000000     48.906295000000000     48.549050000000008
H      46.016199999999991     47.104435000000002     49.782849999999996
H      50.182799999999993     48.831924999999998     46.188350000000000
H      45.297300000000000     47.094935000000000     47.522649999999999
H      49.773999999999994     48.897505000000002     50.965549999999993
H      47.703600000000002     47.622064999999999     51.497349999999997
H      48.208399999999990     48.387925000000003     44.502650000000003
H      46.687899999999992     47.093705000000000     44.878649999999993
