18

C      47.850149999999992     48.609049999999989     48.235999999999990
C      48.965449999999997     47.730649999999997     47.728300000000004
C      46.617249999999999     47.984450000000010     48.601500000000001
C      48.687150000000003     46.319450000000003     47.886200000000002
C      48.032550000000001     49.945149999999998     48.806500000000000
C      50.270049999999998     48.318049999999999     47.331800000000001
C      46.348450000000000     46.649050000000003     48.262400000000000
C      47.374949999999998     45.742850000000004     47.722499999999997
C      49.310050000000004     50.396250000000009     48.478400000000008
C      50.374849999999995     49.766450000000006     47.692700000000002
H      45.783749999999998     48.536050000000003     49.028900000000007
H      49.274150000000006     45.542050000000003     47.346900000000005
H      47.179349999999999     50.614050000000006     49.141000000000005
H      50.782750000000000     47.437950000000001     47.081800000000001
H      45.152649999999994     46.400550000000010     48.218699999999998
H      47.272849999999998     44.654949999999999     47.371399999999994
H      49.728149999999999     51.345050000000001     48.385300000000001
H      50.847350000000006     50.253650000000007     46.858999999999995
