20

C      48.146299999999997     48.101199999999992     46.154449999999990
C      49.549700000000001     47.999399999999994     45.902850000000001
C      47.260400000000004     47.718999999999994     47.528750000000002
C      46.434200000000004     48.552800000000005     50.226950000000002
C      47.815899999999999     48.229500000000002     50.176850000000002
C      47.144599999999997     48.067700000000002     49.034549999999996
C      50.648299999999992     47.942700000000002     46.644350000000003
C      45.192899999999995     48.521000000000001     51.146550000000005
C      49.177699999999987     47.368399999999994     44.866349999999997
H      46.276499999999999     47.908100000000005     47.255350000000007
H      47.779399999999995     49.097400000000007     45.989950000000007
H      47.530400000000000     46.765000000000001     47.571750000000009
H      48.894899999999993     48.067399999999992     49.992050000000006
H      51.653999999999996     47.572800000000001     46.472149999999999
H      51.168999999999997     48.694900000000004     47.180149999999998
H      45.618799999999993     48.025899999999993     52.023150000000001
H      44.854500000000002     49.661500000000004     51.347149999999999
H      44.346000000000004     47.869600000000005     50.908349999999999
H      49.524599999999992     46.338499999999996     44.734549999999999
H      49.212000000000003     47.906999999999996     43.976849999999999
