18

C      47.547599999999989     48.395899999999997     47.861249999999991
C      48.185900000000004     47.189499999999995     47.311650000000000
C      46.505399999999995     49.266000000000005     47.011249999999997
C      47.227099999999993     46.604200000000006     46.494850000000000
C      48.274200000000008     48.657399999999996     49.128450000000001
C      49.241699999999994     46.485299999999995     47.853250000000003
C      45.927300000000002     48.740099999999998     45.813549999999999
C      46.070899999999995     47.260000000000005     45.803449999999998
C      49.392200000000003     47.858500000000006     49.586349999999996
C      50.004899999999992     46.766700000000000     48.975849999999994
H      46.354500000000002     50.352599999999995     47.324349999999995
H      47.250100000000003     45.647400000000005     45.886150000000001
H      47.909800000000004     49.549099999999996     49.751149999999996
H      49.766899999999993     45.698400000000007     47.221350000000001
H      45.122599999999991     49.413600000000002     45.382350000000002
H      45.447599999999994     46.581500000000005     45.358549999999994
H      49.862700000000004     48.018299999999996     50.641450000000006
H      50.877400000000009     46.188100000000006     49.446050000000000
