18

C      48.337999999999987     47.482699999999980     48.655949999999990
C      47.371599999999994     48.397199999999998     48.102649999999997
C      49.331299999999999     48.053100000000001     49.544750000000001
C      47.353800000000000     49.806399999999996     48.229250000000000
C      48.077599999999997     46.123699999999999     48.274650000000001
C      46.311399999999999     47.831199999999995     47.074549999999995
C      49.538700000000006     49.448200000000000     49.615349999999999
C      48.590099999999993     50.223600000000005     48.985149999999997
C      47.335599999999999     45.661400000000000     47.158849999999994
C      46.352699999999999     46.609799999999993     46.492049999999999
H      50.107899999999987     47.435699999999997     50.395950000000006
H      46.335099999999997     50.442599999999999     47.781749999999995
H      48.662999999999997     45.315299999999993     48.860750000000003
H      45.635700000000000     48.580900000000000     46.613750000000003
H      50.364300000000000     49.978399999999993     50.302649999999993
H      49.071399999999997     51.299800000000005     48.990249999999996
H      47.347299999999997     44.700199999999995     47.146549999999998
H      45.725099999999998     46.248999999999995     45.604049999999994
