9

C      48.351649999999992     48.049749999999989     47.960649999999994
C      49.778219999999997     47.503850000000000     47.871250000000003
C      49.477770000000000     48.762850000000000     48.524749999999997
C      46.712429999999998     47.914249999999996     47.539149999999999
H      46.403349999999996     47.147950000000009     46.859549999999999
H      50.261299999999999     46.655050000000003     47.482950000000002
H      50.122859999999996     49.344949999999997     49.140450000000001
H      45.738700000000001     48.208150000000003     48.162449999999993
H      46.485729999999997     49.028750000000002     47.312550000000002
