18

C      48.249499999999998     48.230899999999991     48.079799999999992
C      47.524500000000003     47.097400000000000     48.778799999999997
C      48.527199999999993     48.092399999999998     46.697099999999999
C      47.139899999999997     46.168500000000002     47.760500000000000
C      48.701200000000000     49.548899999999996     48.704799999999999
C      46.850700000000003     47.406399999999998     50.043100000000003
C      47.784999999999997     47.221299999999999     45.717499999999994
C      47.201099999999997     46.132100000000001     46.286699999999996
C      47.825000000000003     49.816299999999998     49.776299999999985
C      46.950199999999995     48.723599999999998     50.442399999999999
H      49.102100000000007     48.827399999999997     45.994199999999999
H      46.600400000000008     45.251500000000000     47.952499999999993
H      49.552400000000006     50.201499999999996     48.316799999999994
H      46.447599999999994     46.816099999999999     50.787099999999988
H      47.840299999999999     47.474699999999999     44.634200000000000
H      46.943100000000001     45.253900000000002     45.699199999999998
H      47.896100000000004     50.748500000000000     50.387399999999992
H      46.545400000000001     48.931500000000000     51.365800000000000
