93

C      52.923549999999992     49.126199999999997     48.420099999999991
C      53.063949999999998     49.109099999999998     49.919300000000000
C      48.137049999999995     46.495800000000003     48.475000000000001
C      51.727249999999991     48.289000000000001     48.053400000000003
C      52.426549999999999     48.058300000000003     50.761599999999994
C      49.679449999999996     46.743200000000002     48.386199999999995
C      50.979949999999995     47.432699999999997     48.883699999999997
C      51.277349999999991     47.300699999999992     50.243999999999993
C      53.785750000000000     49.909199999999998     47.498600000000003
C      54.642949999999992     50.897000000000006     48.109000000000002
C      54.749249999999996     50.996099999999998     49.601099999999995
C      54.207349999999998     49.860699999999994     50.350100000000005
C      51.456249999999990     48.079599999999999     46.529299999999999
C      51.884250000000002     49.410600000000002     45.786799999999999
C      53.190549999999995     49.792199999999994     46.001899999999999
C      52.788549999999994     47.990899999999996     52.222299999999997
C      54.249449999999989     47.900599999999997     52.509399999999992
C      54.958350000000003     49.305899999999994     51.580400000000004
C      55.576549999999990     52.156899999999993     50.016200000000005
C      51.923349999999992     50.301599999999993     43.325399999999995
C      51.378250000000001     49.150699999999986     44.315300000000001
C      49.110949999999995     45.310100000000006     48.321599999999997
C      43.161250000000003     45.226200000000006     51.327199999999998
C      41.859649999999995     46.104699999999994     51.481699999999996
C      47.232149999999997     49.337800000000001     48.996999999999993
C      43.414650000000002     52.056399999999996     50.931800000000003
C      44.510550000000002     45.577699999999993     51.017499999999998
C      46.528749999999995     50.679599999999994     48.836199999999998
C      44.537050000000001     51.968399999999988     49.961900000000000
C      46.840349999999994     46.707700000000003     48.823100000000004
C      42.009949999999996     47.518100000000004     51.423899999999996
C      43.025149999999989     50.962099999999992     51.538199999999996
C      46.500549999999997     48.073499999999996     49.348599999999998
C      45.164449999999995     50.707299999999989     49.437800000000003
C      44.416449999999990     47.065399999999997     50.888399999999997
C      45.256349999999991     48.093000000000004     50.169100000000007
C      43.355049999999999     48.044299999999993     51.215600000000002
C      43.606749999999998     49.596399999999988     51.291999999999994
C      44.637349999999991     49.471899999999991     50.249299999999998
C      43.238849999999992     43.868399999999994     51.870399999999997
C      42.043549999999989     43.231799999999993     52.405799999999999
C      40.871850000000002     44.008300000000006     51.821099999999994
C      40.590849999999996     45.369199999999992     51.684899999999992
C      48.502149999999993     49.474199999999996     48.277400000000000
C      49.030549999999998     50.727999999999994     47.794599999999996
C      48.406649999999992     52.083100000000002     48.048999999999999
C      47.119049999999994     52.033699999999996     48.531199999999998
C      46.309649999999998     53.119699999999995     48.493599999999994
C      44.908250000000002     53.119099999999989     49.112699999999997
C      45.834349999999993     44.865200000000002     51.554299999999998
C      45.661650000000002     43.329800000000006     51.458499999999994
C      44.508049999999990     43.009199999999993     52.303999999999995
H      49.252249999999997     44.735200000000006     49.314100000000003
H      51.496149999999993     45.961299999999994     51.964199999999998
H      51.817649999999993     47.278899999999993     45.854999999999997
H      50.186450000000001     47.893699999999995     46.225299999999997
H      51.554949999999998     50.469399999999993     46.145000000000003
H      53.973049999999994     49.215099999999993     45.423899999999996
H      53.417049999999996     51.009199999999993     46.011999999999993
H      52.486749999999994     48.680599999999998     52.860599999999998
H      52.359149999999993     47.217299999999994     52.843100000000000
H      54.648549999999993     47.724000000000004     53.699400000000004
H      54.657649999999997     46.978899999999996     52.222999999999992
H      55.883249999999997     48.747900000000001     51.275900000000000
H      55.671050000000001     49.939299999999989     52.186999999999991
H      55.262049999999995     51.783799999999999     47.550500000000000
H      51.941549999999999     48.159300000000002     43.832599999999999
H      51.451249999999995     51.293999999999997     43.554299999999998
H      50.426549999999999     49.588399999999993     44.394399999999997
H      52.921149999999990     50.478399999999993     43.581200000000003
H      49.672549999999994     46.135199999999998     51.808199999999992
H      49.744250000000001     44.772999999999996     47.644500000000001
H      46.225649999999995     45.937699999999992     48.836199999999998
H      41.419549999999994     48.322500000000005     51.678000000000004
H      41.982849999999992     50.872399999999999     51.921299999999995
H      42.784749999999995     53.073899999999995     51.162900000000000
H      41.758850000000002     42.220600000000005     52.680199999999992
H      40.298349999999992     43.153800000000004     51.776699999999998
H      48.899149999999999     48.520399999999995     48.240000000000002
H      49.914250000000003     50.938499999999991     47.304600000000001
H      48.476649999999999     53.199200000000005     47.661999999999999
H      46.948450000000001     53.954999999999998     47.980699999999999
H      44.354549999999996     54.025599999999997     49.392699999999998
H      46.890650000000001     44.933099999999996     51.178699999999999
H      45.858649999999990     45.184500000000000     52.641299999999994
H      46.610849999999992     42.922399999999996     51.990000000000002
H      45.618649999999995     43.039500000000004     50.506499999999996
H      44.749350000000000     43.233099999999993     53.339499999999994
H      44.119250000000001     41.974400000000003     52.236899999999999
H      39.565649999999998     45.770600000000002     51.635500000000000
H      52.419149999999995     50.069199999999995     42.300599999999996
N      50.600850000000001     46.358999999999995     51.333099999999995
O      56.434350000000002     52.807699999999997     50.192399999999999
