33

C      52.358199999999997     48.504349999999995     47.444999999999993
C      48.233300000000007     47.242249999999999     46.868400000000001
C      51.068000000000005     47.934650000000005     45.550599999999996
C      43.896300000000004     47.786850000000001     50.341100000000004
C      51.125499999999995     47.655850000000001     47.004600000000003
C      48.465499999999999     48.518950000000004     47.455599999999997
C      44.840799999999994     48.303049999999999     47.944699999999990
C      43.892299999999999     48.332050000000002     49.000999999999998
C      47.041699999999999     48.029150000000001     47.217999999999996
C      46.099600000000002     47.724649999999997     48.185700000000004
C      46.381599999999999     47.334450000000004     49.654499999999992
C      45.239500000000000     47.215450000000004     50.472000000000001
C      46.929399999999994     47.016550000000002     45.923600000000000
C      44.396400000000007     48.751249999999999     46.595499999999994
C      49.697799999999994     47.184049999999999     47.346699999999991
C      52.451100000000004     46.881650000000000     47.391399999999997
H      47.289499999999997     47.243549999999999     44.904899999999991
H      53.222500000000004     48.814549999999997     46.846200000000003
H      51.765200000000000     48.916550000000001     48.266299999999994
H      43.011299999999999     47.919150000000002     51.037199999999991
H      42.777499999999996     48.398350000000001     48.807799999999993
H      47.317900000000002     47.020350000000001     49.914099999999998
H      45.381599999999999     46.551749999999998     51.252400000000002
H      45.936900000000001     46.541650000000004     46.188499999999998
H      44.972299999999997     48.500650000000000     45.749299999999998
H      43.536600000000000     49.469549999999998     46.378999999999998
H      49.994700000000002     47.970650000000006     45.171599999999991
H      48.443300000000001     49.984650000000002     47.443999999999996
H      49.778100000000002     46.583350000000003     48.249999999999993
H      52.881999999999998     46.569950000000006     46.563700000000004
H      52.088400000000000     46.015349999999998     48.009499999999996
H      53.104000000000006     47.743949999999998     44.997499999999995
N      52.038500000000006     47.965150000000001     44.747599999999998
