7

C      47.328249999999990     47.921849999999985     48.747450000000001
C      49.261350000000007     49.156849999999991     47.772450000000006
H      47.523650000000004     49.731650000000002     48.921049999999994
H      45.992050000000006     46.268349999999998     48.231549999999999
N      46.993449999999996     47.066450000000003     47.927650000000000
N      48.247950000000003     49.017550000000000     48.579350000000005
O      50.007949999999994     49.670149999999992     47.078950000000006
