18

C      47.288799999999995     47.502469999999988     47.462750000000000
C      48.048999999999999     48.355119999999999     48.601650000000006
C      48.011700000000012     46.235379999999992     47.195050000000009
C      49.163400000000003     47.743150000000000     49.389449999999997
C      46.427500000000002     48.261359999999996     46.682950000000005
C      47.222600000000000     49.458529999999996     48.937149999999988
C      49.195200000000000     45.867130000000003     47.889049999999997
C      49.833099999999995     46.535249999999991     49.062350000000009
C      46.087800000000001     49.639579999999995     46.758049999999997
C      46.311399999999999     50.276980000000009     48.124650000000003
H      47.689399999999999     45.754599999999996     46.250650000000007
H      49.399200000000000     48.193690000000004     50.222049999999996
H      46.177300000000002     47.765960000000007     45.777950000000004
H      47.430399999999999     49.593599999999995     49.925750000000008
H      49.519900000000000     44.809399999999997     47.474549999999994
H      50.789000000000001     46.205829999999992     49.532849999999996
H      45.210999999999999     49.844979999999993     46.173650000000009
H      45.826900000000002     51.190600000000003     48.392150000000001
