66

C      47.564249999999994     51.481414499999985     47.475899999999996
C      48.105750000000000     44.530314500000003     51.109999999999999
C      46.876350000000002     50.605114499999999     46.469700000000003
C      47.738050000000001     43.781114500000001     49.690899999999999
C      48.446150000000003     50.462814499999993     48.361800000000002
C      48.476349999999996     45.971814499999994     50.963399999999993
C      46.030650000000001     48.440514500000006     45.397999999999996
C      46.075749999999999     44.281814499999996     47.869199999999992
C      45.814250000000001     46.894914499999999     45.280400000000000
C      46.157449999999997     44.701014499999999     46.511300000000006
C      48.730649999999997     48.196714499999999     49.685800000000000
C      46.832250000000002     49.152314500000003     46.422200000000004
C      47.136550000000000     44.798714500000003     48.766799999999989
C      46.239950000000000     46.117014499999996     46.464799999999997
C      48.081049999999998     49.038614499999994     48.697100000000006
C      48.292250000000010     46.830214499999997     49.829099999999997
C      47.247450000000001     48.460614500000005     47.585499999999996
C      47.397750000000002     46.323414499999998     48.784799999999990
C      46.941350000000000     47.006314500000002     47.544499999999999
C      47.595249999999993     52.893414500000006     47.323300000000003
C      46.790649999999999     53.442014499999999     46.388700000000000
C      45.647250000000000     52.724414499999995     45.567800000000005
C      46.227449999999997     51.429414499999993     45.373699999999999
C      45.645550000000000     50.638814499999995     44.221099999999993
C      45.418650000000000     49.201414499999998     44.277100000000004
C      48.627949999999998     43.469114500000003     52.139899999999997
C      48.646749999999997     42.259714500000001     51.232799999999997
C      47.552149999999997     42.047614499999995     52.288299999999992
C      48.161549999999991     42.528314499999993     49.828599999999994
C      49.477350000000001     51.219814499999998     48.847499999999997
C      49.704950000000011     52.719014500000000     48.785299999999992
C      48.662950000000002     53.470614499999996     48.233199999999997
C      47.177550000000004     45.527714500000002     51.663600000000002
C      50.396850000000001     53.142014500000002     49.987300000000005
C      50.405450000000002     52.861714500000005     47.311300000000003
C      50.183550000000004     54.898414500000001     50.600799999999992
C      45.723649999999999     46.476114499999994     43.923599999999993
C      49.878150000000005     41.378014500000006     51.462000000000003
H      45.123550000000002     46.150314499999993     51.804400000000001
H      47.327150000000003     45.599914499999997     52.779200000000003
H      50.657650000000004     53.941614500000000     46.980300000000000
H      45.732250000000001     43.242514499999999     47.840999999999994
H      45.772150000000003     44.338014500000000     45.650899999999993
H      49.468650000000011     48.563414499999993     50.319400000000002
H      47.073450000000001     54.570014499999999     46.451300000000003
H      45.154049999999998     51.296714499999993     43.386099999999999
H      44.816350000000000     48.601714500000000     43.293400000000005
H      49.282150000000001     43.540614500000004     53.022000000000006
H      48.093549999999993     41.735714500000000     49.018400000000000
H      49.920550000000006     50.566414499999993     49.640799999999999
H      48.805149999999998     54.586714499999999     48.491600000000005
H      51.499749999999999     52.720314500000001     49.800899999999999
H      50.017949999999999     52.436214500000006     50.835399999999993
H      51.095849999999999     53.006114499999995     47.982799999999997
H      50.387450000000001     52.165214500000005     46.550500000000000
H      49.957950000000011     55.556185499999998     49.689400000000006
H      50.621250000000003     55.378414500000005     51.601900000000001
H      49.348550000000003     54.843314500000005     51.196599999999989
H      45.436850000000000     46.915314499999994     42.977999999999994
H      45.927450000000000     45.324614499999996     43.770200000000003
H      49.235149999999990     40.736614500000002     52.237899999999996
H      50.922950000000000     41.821514500000006     51.712400000000002
H      49.941050000000004     40.443814500000002     50.848900000000000
O      45.806950000000001     45.735114499999995     51.156499999999994
O      46.574950000000001     41.466314499999996     52.148799999999994
O      44.500250000000001     52.992014499999996     45.495999999999995
