18

C      47.501399999999990     47.468299999999985     47.695799999999991
C      48.852999999999994     47.864600000000003     47.840900000000005
C      46.865299999999998     47.720300000000002     46.389499999999998
C      49.377099999999999     48.500200000000000     46.587299999999999
C      46.719099999999997     46.697899999999997     48.733999999999995
C      49.238499999999995     47.554899999999996     49.246600000000001
C      47.474999999999994     48.577800000000003     45.411299999999997
C      48.831099999999992     49.084600000000002     45.403099999999995
C      47.305699999999995     46.765499999999996     50.021299999999997
C      48.533899999999996     47.504100000000001     50.519199999999998
H      45.869499999999995     47.377100000000006     46.227499999999992
H      50.353500000000004     48.444099999999999     46.289299999999997
H      45.646499999999996     46.058299999999996     48.634199999999993
H      50.195799999999998     47.940099999999994     49.109899999999996
H      46.551999999999992     49.108799999999995     44.818100000000001
H      48.915999999999997     49.941700000000004     44.670900000000003
H      46.837899999999998     46.078700000000005     50.797899999999998
H      49.082999999999998     47.823399999999999     51.329099999999997
