18

C      47.194400000000002     47.225589999999997     48.727699999999984
C      46.931799999999996     48.677140000000001     48.454700000000003
C      48.105699999999999     46.959310000000002     49.852000000000004
C      47.373400000000004     50.054129999999994     49.064499999999995
C      46.607700000000008     46.050249999999998     48.041100000000000
C      46.428100000000001     48.972069999999995     47.051099999999991
C      48.831500000000005     48.213079999999998     50.291299999999993
C      48.276899999999998     49.452319999999993     50.070499999999996
C      46.260100000000008     46.440179999999998     46.736300000000000
C      46.266900000000007     47.857080000000003     46.204799999999992
H      48.095500000000001     45.982710000000004     50.178700000000006
H      47.525999999999996     50.938009999999998     48.413499999999999
H      46.833399999999997     45.061990000000002     48.510800000000003
H      46.525000000000006     50.141109999999991     47.235500000000002
H      49.941599999999994     48.096090000000011     50.884500000000003
H      49.174400000000006     50.017920000000004     50.644900000000007
H      46.058400000000006     45.646799999999999     46.098199999999991
H      46.187500000000000     47.946820000000010     45.115499999999997
