12

C      49.418799999999990     49.027949999999990     48.850749999999998
C      49.282100000000007     48.139550000000000     47.885549999999995
C      48.526600000000009     46.809550000000002     48.124750000000006
C      47.242700000000006     46.936450000000008     47.271450000000002
H      49.534799999999997     48.477249999999998     46.971750000000000
H      49.136000000000003     49.032650000000004     49.862449999999995
H      49.682600000000001     50.142049999999998     48.475250000000003
H      49.470400000000005     46.129350000000002     47.979050000000001
H      48.159900000000000     46.688650000000010     49.222650000000002
H      47.024400000000007     45.857950000000002     47.304149999999993
H      46.317399999999999     47.370050000000006     47.657049999999998
H      47.392500000000005     47.037149999999997     46.137550000000005
