6

C      48.541199999999996     47.488949999999988     48.533699999999996
C      47.095500000000001     47.685250000000003     48.085599999999999
H      46.415800000000004     47.107350000000004     48.796500000000002
H      46.787500000000001     47.520850000000003     47.100299999999997
H      46.868000000000002     48.892649999999996     47.888500000000001
O      49.584199999999996     47.437549999999995     48.899700000000003
