25

C      49.270949999999999     51.456899999999990     51.219300000000004
C      47.865349999999999     46.883000000000003     46.500500000000002
C      47.482149999999997     46.993099999999991     49.085899999999995
C      49.087849999999996     49.940399999999990     47.821799999999996
C      48.914949999999997     49.934800000000003     49.299599999999998
C      47.127249999999997     47.290299999999995     45.022800000000004
C      48.015849999999993     47.653699999999994     50.283900000000003
C      48.219950000000004     49.001399999999997     47.185800000000000
C      49.263749999999995     50.219199999999994     50.517299999999992
C      47.894349999999996     47.686199999999992     47.797100000000000
C      48.425649999999997     49.031999999999989     50.394199999999998
C      48.016050000000000     45.498299999999993     46.878900000000002
C      48.141650000000006     44.799299999999995     48.159300000000002
C      47.570649999999993     45.444699999999990     49.153099999999995
C      46.634750000000004     47.797499999999992     48.439899999999994
H      46.493749999999999     46.826699999999995     44.355800000000002
H      49.720850000000006     50.707000000000001     47.253599999999992
H      47.624649999999995     46.988199999999999     51.387900000000002
H      48.053350000000002     48.922199999999997     46.100899999999996
H      48.278249999999993     44.813699999999990     46.143299999999996
H      48.491750000000003     43.665799999999997     48.066499999999991
H      47.309750000000001     44.975299999999997     50.075800000000001
H      46.200650000000003     48.634499999999996     48.942499999999995
O      49.799349999999997     52.334200000000003     51.644199999999998
O      48.314850000000000     47.239399999999996     44.852100000000007
