18

C      47.623849999999997     48.181349999999995     47.400399999999991
C      48.207449999999994     47.723849999999999     48.635000000000005
C      47.646749999999997     49.581149999999994     46.835499999999996
C      49.121349999999993     48.569349999999986     49.188699999999997
C      47.002349999999993     47.108249999999998     46.617900000000006
C      48.040849999999992     46.400449999999992     49.182000000000002
C      48.523949999999999     50.501849999999990     47.584100000000007
C      49.061049999999994     49.997449999999986     48.704400000000007
C      46.793350000000004     45.825649999999996     47.190299999999993
C      47.201650000000001     45.438149999999993     48.570300000000003
H      49.501049999999992     50.746849999999995     49.322100000000006
H      47.201250000000002     50.194450000000003     46.035399999999996
H      49.720950000000002     48.363249999999994     50.076999999999998
H      46.358149999999995     47.282449999999997     45.693299999999994
H      48.442250000000001     46.016049999999993     50.306700000000006
H      48.668149999999997     51.454949999999997     47.381299999999996
H      46.279049999999998     45.095950000000002     46.521900000000002
H      46.993849999999995     44.545050000000003     48.971500000000006
