7

C      48.109549999999992     47.134149999999998     48.313849999999995
H      47.172150000000002     49.356949999999998     48.221950000000007
H      48.827849999999998     47.484750000000005     49.193749999999994
H      47.274950000000004     46.643050000000002     48.754850000000005
H      48.175350000000009     48.907449999999997     46.806250000000006
H      48.567350000000005     46.861350000000002     47.270150000000001
N      47.578950000000006     48.508849999999995     47.634349999999998
