11

C      47.734899999999989     48.050499999999992     49.326044999999993
C      49.263799999999996     48.619399999999999     49.044784999999997
C      48.214399999999998     47.725999999999999     48.290725000000002
C      48.294800000000009     47.190500000000000     46.853465000000000
H      46.054800000000000     49.006199999999993     48.917985000000002
H      49.433199999999999     49.680199999999999     48.799555000000005
H      49.945200000000000     47.957099999999997     49.357625000000006
H      48.924499999999995     46.319800000000001     46.792214999999999
H      47.233599999999996     46.889800000000001     46.324445000000004
H      49.095799999999997     47.863799999999998     46.296765000000001
O      46.420600000000000     48.500199999999992     49.703234999999999
