18

C      47.810949999999998     47.648499999999991     48.049399999999991
C      48.895250000000004     48.523300000000006     47.640899999999995
C      47.793750000000003     47.196700000000007     49.391799999999996
C      49.837750000000000     48.850300000000004     48.800599999999996
C      46.587550000000007     47.649700000000010     47.387999999999998
C      48.818550000000002     49.227000000000004     46.356400000000001
C      48.614450000000005     47.604600000000005     50.426800000000007
C      49.463949999999997     48.808700000000002     50.200600000000001
C      46.570850000000007     48.475400000000008     46.172300000000000
C      47.630850000000002     49.103600000000000     45.478100000000005
H      47.067250000000001     46.404499999999999     49.759800000000006
H      50.584750000000000     49.586900000000000     48.646300000000004
H      45.675550000000001     47.549000000000007     47.759099999999997
H      49.659650000000006     49.461900000000000     45.657400000000003
H      48.603350000000006     47.192500000000010     51.502100000000006
H      50.065049999999999     49.129100000000008     51.252299999999998
H      45.415250000000000     48.523300000000006     45.959200000000003
H      47.386950000000006     49.595500000000001     44.497899999999994
