5

H      47.053199999999997     48.653799999999990     47.358849999999990
H      47.486600000000003     47.232500000000002     47.302050000000001
H      48.946800000000003     48.767499999999998     47.759449999999994
H      48.245800000000003     47.766399999999997     48.697949999999999
N      48.076500000000010     48.077399999999997     47.699449999999992
