5

C      47.842999999999996     47.945899999999988     48.028150000000004
H      47.444700000000005     46.952399999999997     47.256850000000000
H      49.019599999999997     48.339299999999994     48.310749999999999
H      48.062300000000008     49.047600000000003     47.274150000000006
H      46.980400000000003     48.066499999999991     48.743150000000000
