22

C      48.375649999999993     46.306349999999995     50.244650000000000
C      48.180050000000001     47.958450000000006     46.853549999999998
C      48.140749999999997     48.346950000000000     48.295550000000006
C      48.638350000000003     48.955649999999999     45.874949999999998
C      48.588349999999998     49.662550000000003     48.679450000000003
C      47.967449999999999     46.577750000000002     46.346150000000009
C      47.456650000000003     47.252050000000004     49.134150000000005
C      48.992849999999997     50.248449999999998     46.283550000000005
C      48.976949999999995     50.695150000000005     47.674650000000000
C      47.570050000000002     45.552650000000007     47.342950000000002
C      47.021149999999999     45.875250000000001     48.598849999999999
H      47.877749999999999     45.177150000000005     50.329450000000008
H      48.731150000000007     46.760050000000000     51.102249999999998
H      49.107350000000004     45.687950000000001     49.748850000000004
H      48.465350000000008     48.494450000000008     44.897750000000002
H      48.249049999999997     49.851250000000000     49.593850000000003
H      47.910950000000000     46.382750000000001     45.315550000000002
H      46.639450000000004     47.543349999999997     50.155650000000009
H      49.393750000000004     50.915550000000003     45.444749999999999
H      49.243949999999991     51.669649999999997     48.016649999999998
H      47.470949999999995     44.330350000000003     46.913550000000001
H      46.606249999999996     45.172850000000004     49.312049999999999
