18

C      47.371800000000000     48.094849999999994     48.335699999999989
C      48.783400000000000     48.791449999999998     48.194199999999995
C      47.189400000000006     47.128450000000001     49.329299999999996
C      49.841899999999995     48.213549999999998     49.108699999999992
C      46.196799999999996     48.856349999999999     47.964099999999995
C      48.886399999999995     49.566549999999999     47.045699999999997
C      48.325000000000003     46.332850000000001     49.961599999999997
C      49.547799999999995     47.069250000000004     49.847199999999994
C      46.366500000000002     49.831449999999997     46.949299999999994
C      47.727000000000004     50.033549999999998     46.363299999999995
H      46.126300000000001     46.881549999999997     49.704799999999999
H      50.889499999999998     48.362249999999996     48.946999999999996
H      45.110500000000002     48.589549999999996     47.939299999999996
H      49.882500000000007     49.853349999999999     46.835599999999992
H      48.262200000000007     45.356549999999999     50.604700000000001
H      50.571700000000007     46.942950000000003     50.327999999999996
H      45.513800000000003     50.421250000000001     46.461999999999996
H      47.882099999999994     50.643450000000001     45.395299999999999
