18

C      48.176649999999995     47.310349999999993     47.892724999999992
C      47.674749999999996     48.738649999999993     47.545225000000002
C      47.197250000000004     46.477649999999997     48.399484999999999
C      46.285750000000000     49.118150000000000     47.981054999999998
C      49.614550000000001     46.888649999999998     47.814695000000000
C      48.728050000000003     49.479950000000002     47.061275000000002
C      45.937249999999999     46.952550000000002     48.867345000000000
C      45.329050000000002     48.187950000000001     48.423214999999999
C      50.728150000000007     47.773449999999997     47.772754999999997
C      50.061450000000001     49.013549999999995     47.161294999999996
H      47.573450000000001     45.436949999999996     48.600214999999999
H      45.868350000000000     50.123350000000002     47.637084999999999
H      50.046950000000002     45.969849999999994     48.227834999999999
H      48.632849999999998     50.563050000000004     46.979475000000001
H      45.226850000000006     46.261949999999999     49.374875000000003
H      44.254250000000006     48.510350000000003     48.640504999999997
H      51.745749999999994     47.265950000000004     47.612544999999997
H      50.783450000000009     49.661950000000004     46.625124999999997
