18

C      48.281149999999997     48.616449999999993     47.379199999999990
C      48.008049999999997     47.526250000000005     48.395099999999999
C      47.215050000000005     49.549750000000003     46.787700000000001
C      46.596249999999998     47.905550000000005     48.858699999999999
C      49.663550000000001     48.860250000000008     46.832999999999998
C      48.935050000000004     46.464550000000003     48.655400000000000
C      45.898250000000004     49.774650000000008     47.202799999999996
C      45.537750000000003     48.763149999999996     48.220299999999995
C      50.524749999999997     47.760050000000000     47.312100000000001
C      50.251249999999999     46.541350000000001     48.085200000000000
H      47.796850000000006     50.086950000000002     46.064700000000002
H      46.609549999999999     47.636049999999997     49.935299999999998
H      49.939350000000005     49.710849999999994     46.111499999999992
H      48.674650000000000     45.817750000000004     49.569400000000002
H      45.453450000000004     50.266050000000000     46.397999999999996
H      44.449050000000000     48.655650000000001     48.260899999999992
H      51.550950000000000     47.814750000000004     46.833399999999997
H      50.826650000000001     45.733950000000000     48.384699999999995
