18

C      48.330749999999995     48.887099999999997     48.107749999999996
C      47.817550000000004     47.402199999999993     48.332350000000005
C      47.258550000000007     49.859999999999999     47.885249999999999
C      46.491650000000000     47.293399999999991     49.008249999999990
C      49.582550000000005     48.973299999999995     47.298649999999995
C      48.759450000000008     46.365899999999996     48.124749999999992
C      45.806850000000004     49.575999999999993     48.309049999999999
C      45.648450000000004     48.269499999999994     49.001050000000006
C      50.341749999999998     47.847700000000003     47.085250000000002
C      50.086250000000000     46.627200000000002     47.609449999999995
H      47.127050000000004     50.771000000000001     47.291650000000004
H      45.761350000000000     46.337000000000003     49.301649999999995
H      50.114250000000006     49.850200000000001     46.870149999999995
H      48.489950000000000     45.228999999999999     48.281649999999999
H      45.028050000000000     50.398299999999992     48.353349999999992
H      44.720750000000002     47.866100000000003     49.438749999999999
H      51.279249999999998     47.926699999999997     46.561250000000001
H      50.633249999999997     45.746299999999991     47.313749999999999
