7

C      47.981449999999995     48.124214999999992     47.330949999999994
C      47.623350000000002     47.757137000000000     48.825050000000005
H      48.705150000000003     49.037019999999998     47.212850000000003
H      47.813649999999996     48.621000000000002     49.368250000000003
H      47.419349999999994     46.962980000000002     49.529449999999997
H      48.663349999999994     47.405182999999994     46.964150000000004
H      47.294849999999997     48.302155999999989     46.470550000000003
