18

C      48.314239999999984     47.470449999999992     47.469849999999994
C      48.171839999999996     48.109549999999999     48.744450000000001
C      47.652889999999992     46.231750000000005     47.149050000000003
C      47.487440999999990     47.414450000000002     49.810750000000006
C      48.935960000000001     48.341650000000001     46.369550000000004
C      48.632349999999995     49.480249999999998     48.909450000000000
C      46.825052999999990     45.560350000000000     48.203850000000003
C      46.789170999999996     46.181150000000002     49.618350000000000
C      49.391929999999995     49.643349999999998     46.616250000000001
C      49.204509999999992     50.298349999999999     47.858249999999998
H      47.846029999999992     45.651650000000004     46.197350000000000
H      47.396806999999995     48.190150000000003     50.596049999999998
H      49.347099999999990     47.817149999999998     45.403950000000002
H      48.588450000000002     49.648550000000000     50.030450000000009
H      46.360680000000016     44.632850000000005     48.151550000000007
H      45.993479999999998     45.980249999999998     50.309449999999991
H      50.006520000000002     50.092050000000000     45.819850000000002
H      49.265909999999998     51.367149999999995     48.031450000000000
