18

C      48.112349999999999     48.287699999999994     48.599849999999996
C      47.926850000000002     47.433500000000002     47.437950000000001
C      46.990949999999998     48.702200000000005     49.368049999999997
C      46.635649999999998     47.065100000000001     46.845450000000000
C      49.355350000000001     48.563400000000001     49.119150000000005
C      49.000349999999997     47.004400000000004     46.713050000000003
C      45.751950000000008     48.236900000000006     48.830849999999998
C      45.531450000000007     47.577500000000001     47.565950000000001
C      50.557649999999995     48.125100000000003     48.398250000000004
C      50.278750000000002     47.355800000000002     47.142750000000007
H      47.094149999999999     49.341099999999997     50.173249999999996
H      46.172750000000008     46.803100000000001     45.916550000000001
H      49.189850000000007     49.173700000000011     50.077350000000003
H      48.822850000000003     46.658900000000003     45.826750000000004
H      45.056449999999998     48.722999999999999     49.723950000000002
H      44.595950000000002     47.737000000000002     47.131450000000001
H      51.404049999999998     48.553400000000011     49.061550000000004
H      50.944450000000003     46.824600000000004     46.542850000000001
