19

C      48.870749999999987     48.698299999999989     48.124849999999995
C      47.460850000000008     48.308700000000002     48.132550000000009
C      49.253250000000008     48.990399999999994     46.729749999999996
C      46.411349999999999     48.871700000000004     47.110250000000008
C      49.589550000000003     48.493799999999993     49.382350000000002
C      47.320550000000011     46.946699999999993     47.780550000000005
C      48.372850000000000     49.232900000000001     45.762349999999998
C      46.884349999999998     49.042100000000005     45.896950000000004
C      48.382750000000001     48.163100000000000     50.156350000000003
C      47.072450000000003     47.724099999999993     49.384850000000000
H      46.252549999999999     46.448300000000003     48.101950000000002
H      50.321050000000000     49.137400000000014     46.571750000000009
H      45.444249999999997     48.796000000000006     47.496750000000006
H      50.555750000000003     48.884000000000000     49.957650000000001
H      48.334650000000011     46.431299999999993     47.724550000000008
H      48.873650000000012     49.568700000000007     44.788950000000000
H      46.362949999999998     49.344100000000012     44.873550000000009
H      48.445650000000001     48.536599999999993     51.211050000000000
H      46.196950000000001     47.261200000000002     49.730150000000009
