18

C      48.476699999999980     47.760849999999991     47.392929999999993
C      47.303299999999993     48.543849999999999     48.086480000000002
C      48.414000000000001     46.381750000000004     47.004980000000003
C      46.263999999999996     47.645050000000005     48.727860000000000
C      49.747900000000001     48.600050000000003     47.292729999999999
C      47.270499999999998     49.914250000000003     48.380770000000005
C      47.194999999999993     45.677649999999993     47.303870000000003
C      46.052599999999998     46.307349999999992     48.087940000000003
C      49.806500000000000     49.820150000000005     48.073410000000003
C      48.591200000000001     50.622250000000001     48.237819999999999
H      49.260099999999994     45.990450000000003     46.257330000000003
H      45.622900000000001     47.765149999999998     49.742669999999997
H      50.807500000000005     48.292449999999995     47.149950000000004
H      46.482599999999991     50.464949999999995     48.764410000000005
H      47.057899999999989     44.466050000000003     47.088230000000003
H      45.192499999999995     45.825849999999996     48.527120000000004
H      50.625299999999996     50.491750000000003     48.026190000000000
H      48.450000000000003     51.533949999999997     48.399600000000000
