22

C      48.988279999999989     49.789649999999995     49.326999999999998
C      47.769779999999997     48.455049999999993     47.675699999999999
C      48.703499999999998     47.426250000000003     47.295700000000004
C      46.412160000000000     47.934049999999992     47.728600000000007
C      48.235300000000002     46.118749999999999     47.214300000000001
C      48.297570000000000     49.909550000000003     47.518800000000006
C      49.931009999999993     47.905650000000001     46.667600000000000
C      45.968263999999998     46.578550000000000     47.592499999999994
C      47.012389999999996     45.625750000000004     47.188300000000005
C      49.442619999999998     50.260649999999991     46.685899999999997
C      50.221080000000008     49.269249999999992     46.276599999999995
H      48.684779999999996     48.761149999999994     49.685499999999998
H      49.987809999999996     49.841749999999998     49.700899999999997
H      48.617730000000002     50.534550000000003     50.089199999999998
H      45.517533999999998     48.569650000000003     47.940400000000004
H      49.049299999999995     45.366750000000003     47.338400000000000
H      47.432029999999997     50.637749999999990     47.464499999999994
H      50.336319999999994     46.996149999999993     46.447899999999997
H      44.920760000000001     46.261749999999999     48.178400000000003
H      46.601320000000001     44.629849999999998     46.868699999999997
H      49.880730000000007     51.370150000000002     46.314000000000000
H      51.079239999999999     49.568849999999991     45.910800000000002
