18

C      48.540999999999983     48.400149999999989     48.425149999999988
C      47.324700000000000     48.191149999999993     47.478949999999998
C      48.306699999999999     48.012450000000001     49.805350000000004
C      46.432699999999990     47.145550000000000     47.903049999999993
C      49.580399999999990     48.915949999999995     47.517849999999996
C      47.200499999999998     48.868750000000006     46.145650000000003
C      47.214499999999994     47.226450000000000     50.302550000000011
C      46.434699999999999     46.650250000000000     49.266150000000010
C      49.404499999999992     49.677850000000007     46.211150000000004
C      48.212600000000002     49.670949999999998     45.669950000000000
H      48.904199999999996     48.232550000000003     50.691249999999997
H      45.212899999999998     46.756549999999997     47.515150000000006
H      50.787100000000002     48.784250000000000     48.010750000000002
H      46.228699999999996     48.938949999999998     45.617949999999993
H      47.280299999999990     46.851050000000001     51.234549999999999
H      45.791899999999991     45.738849999999999     49.567650000000000
H      50.400399999999998     50.083849999999998     45.738749999999996
H      48.303999999999995     50.261150000000001     44.765450000000001
