18

C      48.743299999999984     47.751901999999994     47.890199999999986
C      47.404899999999998     48.370601999999991     48.072099999999992
C      49.082200000000000     47.831801999999996     46.499600000000001
C      46.530400000000000     49.030001999999996     47.113000000000000
C      49.337599999999995     47.039201999999989     48.981600000000000
C      47.032899999999998     48.871601999999996     49.428399999999996
C      48.405099999999990     48.526001999999991     45.445999999999998
C      47.118600000000001     49.050901999999994     45.803199999999990
C      49.014399999999995     47.636801999999989     50.285499999999999
C      47.982100000000003     48.642401999999990     50.513300000000001
H      50.125100000000003     47.467101999999997     46.353200000000001
H      45.874899999999997     49.703198000000000     47.423299999999998
H      50.122500000000002     46.296802000000000     48.634299999999996
H      46.296099999999996     49.677712000000000     49.465400000000002
H      48.828099999999992     48.537501999999989     44.477300000000000
H      46.639499999999998     49.605405000000005     45.017499999999998
H      49.327900000000000     47.607401999999993     51.300299999999993
H      47.839399999999998     49.370301999999995     51.522700000000000
