18

C      48.400685000000003     48.373150000000003     48.738949999999988
C      47.561782000000008     47.627150000000000     47.874949999999998
C      49.713845000000006     47.763550000000009     48.843950000000007
C      48.138105000000010     46.436250000000001     47.342950000000002
C      47.983445000000010     49.682850000000002     49.234350000000006
C      46.278685000000003     48.211050000000000     47.432749999999999
C      50.294115000000005     46.427549999999997     48.654949999999999
C      49.243625000000009     45.732950000000002     47.862750000000005
C      46.626685000000023     50.113250000000008     48.963049999999996
C      45.699585000000027     49.412649999999999     48.044849999999997
H      50.570815000000010     48.527150000000006     49.151250000000005
H      47.736355000000010     45.880750000000006     46.513149999999996
H      48.987235000000013     50.260750000000002     49.486850000000004
H      45.914885000000034     47.687950000000001     46.630750000000006
H      51.268615000000011     46.115049999999997     48.880549999999999
H      49.098395000000011     44.770049999999998     47.313749999999999
H      46.327885000000016     51.229950000000002     49.020750000000007
H      44.731384999999989     49.914050000000003     47.774450000000002
