16

C      44.850014999999999     48.690564999999992     49.328349999999986
C      46.147264999999997     46.891914999999997     47.988550000000004
C      47.301475000000003     47.529224999999997     48.857650000000007
C      48.602915000000003     47.664062999999999     48.172550000000001
C      49.200475000000004     47.737089999999995     46.884850000000000
C      49.909695000000006     47.590094999999991     48.096450000000004
C      45.859945000000003     48.289814999999990     48.378450000000001
H      44.365065000000001     49.876584999999992     48.871449999999996
H      45.674934999999998     46.123415000000008     48.605249999999998
H      46.481545000000004     46.467415000000003     47.157449999999997
H      47.054225000000010     47.788833999999994     49.928849999999997
H      49.929094999999997     47.487015000000000     46.071150000000003
H      46.439574999999998     49.141994999999994     47.688850000000002
H      52.108055000000000     48.455455000000001     48.151650000000004
O      43.891945000000000     48.154624999999996     49.685450000000003
S      50.946855000000006     48.899454999999989     49.039450000000002
