93

C      53.305799999999991     49.356049999999989     50.169649999999990
C      53.781700000000001     49.212750000000000     51.564050000000009
C      54.496400000000001     39.874650000000003     52.724350000000001
C      53.893400000000000     39.550749999999994     51.484350000000006
C      55.042499999999997     41.353650000000002     52.981549999999999
C      53.870899999999999     47.825450000000004     51.896550000000005
C      51.163600000000002     47.426149999999993     47.914850000000001
C      52.558299999999996     40.748949999999994     49.381850000000000
C      52.479799999999997     47.137850000000000     48.564549999999997
C      52.428399999999996     41.887249999999995     48.424149999999997
C      52.167999999999999     44.443550000000002     48.414749999999998
C      52.915999999999997     48.011250000000004     49.680750000000003
C      53.477899999999998     40.664050000000003     50.533149999999992
C      54.882300000000001     42.383749999999992     52.007249999999999
C      52.744399999999999     45.685350000000000     48.883949999999999
C      52.584400000000002     43.127349999999993     48.920050000000003
C      53.427999999999990     47.139049999999997     50.685850000000002
C      53.904399999999988     44.493449999999996     50.911349999999999
C      54.015599999999999     42.022250000000000     50.835349999999991
C      53.287399999999998     45.677650000000000     50.291849999999997
C      53.485899999999994     43.228849999999994     50.166550000000001
C      50.528999999999996     48.632449999999992     48.169249999999991
C      48.728299999999997     51.369450000000001     47.294249999999991
C      46.599399999999996     50.266649999999998     47.271649999999994
C      47.248100000000001     47.224449999999990     45.352450000000005
C      44.579400000000000     48.536349999999999     45.907550000000001
C      47.294699999999999     51.478749999999991     47.193550000000002
C      47.931699999999999     47.302149999999997     44.131050000000002
C      45.645999999999994     49.356949999999998     46.749250000000004
C      46.698299999999996     48.898949999999999     47.323250000000002
C      43.741099999999996     48.218549999999993     44.082750000000004
C      42.198399999999999     48.552250000000001     43.636650000000003
C      44.940800000000003     47.762349999999998     44.791449999999998
C      43.165500000000002     49.251549999999995     46.502349999999993
C      42.038699999999999     50.166849999999997     45.820449999999994
C      41.268899999999995     49.222949999999997     44.832350000000005
C      44.870100000000001     46.040250000000000     44.977350000000001
C      47.725400000000000     45.836150000000004     44.647549999999995
C      42.759300000000003     48.233850000000004     47.522849999999991
C      42.565099999999994     46.850449999999995     46.922049999999999
C      46.396799999999999     48.140950000000004     44.359449999999995
C      43.460900000000002     48.671650000000000     42.715149999999994
C      49.622700000000002     53.707349999999991     47.365549999999999
C      49.695000000000000     54.454049999999995     46.077550000000002
C      50.123199999999997     52.161450000000002     47.176649999999995
C      50.736100000000000     53.784250000000000     45.305350000000004
C      48.868899999999996     54.443849999999998     48.339449999999999
C      49.207999999999998     55.706249999999997     45.486850000000004
C      50.827199999999998     52.484250000000003     45.847849999999994
C      49.998699999999999     50.735749999999996     47.060350000000000
C      48.428899999999999     55.814650000000000     47.753050000000002
C      48.575099999999999     56.515850000000000     46.567449999999994
H      53.288800000000002     50.129750000000001     49.611549999999994
H      53.989500000000000     49.923649999999995     52.302849999999992
H      54.250099999999996     39.214649999999992     53.509050000000002
H      53.606599999999993     38.440150000000003     51.384250000000009
H      55.501899999999999     41.660749999999993     53.979349999999997
H      53.903599999999997     47.451949999999997     52.956350000000000
H      50.685699999999997     46.416150000000002     47.433949999999996
H      52.001300000000001     39.945449999999994     49.245449999999991
H      52.016799999999996     41.824849999999998     47.543650000000000
H      51.938000000000002     44.726149999999990     47.329949999999997
H      55.417200000000001     44.524549999999991     52.729450000000000
H      46.589399999999998     52.424250000000001     47.140850000000000
H      43.490400000000001     50.214449999999999     47.204949999999997
H      41.249699999999997     50.438949999999991     46.503749999999997
H      42.654699999999998     51.028350000000003     45.132649999999998
H      40.498100000000001     48.617449999999991     45.417950000000005
H      40.774200000000000     50.010449999999992     44.060249999999996
H      48.566600000000001     45.456850000000003     45.469549999999998
H      48.158000000000001     45.204749999999990     43.833650000000006
H      41.633800000000001     48.319249999999997     47.669950000000000
H      43.623300000000000     48.223050000000001     48.417450000000002
H      42.314299999999996     46.837350000000001     45.900949999999995
H      43.432600000000001     46.306049999999999     46.872649999999993
H      42.266100000000002     45.822450000000003     47.766149999999996
H      46.651000000000003     49.312150000000003     44.420749999999998
H      48.497099999999996     47.558449999999993     43.228750000000005
H      41.659100000000002     47.626449999999991     43.411649999999995
H      44.350199999999994     48.356349999999992     42.020650000000003
H      43.637400000000000     49.829749999999990     42.767550000000000
H      48.576900000000002     48.361850000000004     46.611049999999992
H      50.974499999999999     54.068249999999992     44.315250000000006
H      48.095900000000000     54.169349999999994     49.114549999999994
H      49.588299999999997     56.109949999999998     44.494249999999994
H      51.587400000000002     51.664749999999998     45.373850000000004
H      50.347200000000001     50.131149999999991     46.212149999999994
H      47.686799999999998     56.543650000000000     48.295549999999992
H      48.018400000000000     57.559849999999997     46.435149999999993
N      54.710099999999997     43.963949999999997     51.943950000000001
N      47.698599999999999     47.728449999999995     46.660849999999996
O      50.091099999999997     49.615250000000003     48.563850000000002
O      45.350699999999996     45.051649999999995     44.882450000000006
