18

C      47.363050000000001     48.380549999999992     47.810499999999998
C      48.765850000000000     48.287550000000003     48.546800000000005
C      46.757950000000008     48.631850000000000     46.518699999999995
C      49.765650000000008     48.771450000000002     47.666100000000000
C      46.257550000000009     47.826050000000002     48.689400000000006
C      49.048349999999999     47.513950000000001     49.757900000000006
C      48.034550000000010     49.105550000000001     45.872500000000002
C      49.404850000000010     49.189350000000005     46.402799999999999
C      46.386350000000007     46.980050000000006     49.807400000000001
C      47.773650000000004     47.139250000000004     50.417900000000003
H      45.918950000000009     48.756050000000002     45.829400000000007
H      50.795949999999991     48.565049999999999     47.998400000000004
H      45.204050000000009     47.751350000000002     48.374400000000009
H      50.162749999999988     47.270950000000006     50.004100000000008
H      47.830250000000007     48.963650000000001     44.838200000000001
H      50.149250000000009     49.632050000000000     45.671700000000001
H      45.483650000000011     46.367950000000000     50.251900000000006
H      47.647149999999996     46.452150000000003     51.161799999999999
