18

C      47.554349999999992     48.168799999999990     47.522499999999994
C      48.141149999999996     47.530200000000001     48.738599999999991
C      46.668449999999993     49.275299999999994     47.480499999999992
C      47.794849999999997     47.920699999999997     50.111499999999992
C      47.893149999999991     47.632399999999997     46.238999999999990
C      49.261250000000004     46.770899999999997     48.615299999999991
C      46.224350000000001     49.603800000000000     48.820799999999991
C      46.895449999999997     48.999599999999994     49.949999999999989
C      49.013549999999995     46.699399999999997     46.164000000000001
C      49.786649999999995     46.359499999999997     47.243299999999991
H      46.163349999999994     49.606800000000000     46.521900000000002
H      48.267049999999998     47.411699999999996     50.924199999999999
H      47.389949999999999     47.973199999999999     45.428100000000001
H      49.824649999999991     46.191699999999997     49.382499999999993
H      45.276049999999998     50.311799999999998     49.087999999999994
H      46.324749999999995     49.503300000000003     50.720699999999994
H      49.145849999999996     46.192000000000000     45.075800000000001
H      50.723950000000002     45.688200000000002     47.220500000000001
