6

C      48.199799999999989     48.650649999999992     48.137649999999994
C      47.600700000000003     47.363349999999997     47.962550000000000
H      48.532700000000006     48.936850000000007     47.144849999999998
H      47.809500000000000     49.296549999999996     48.852950000000000
H      47.619000000000000     46.795749999999998     48.855150000000002
H      47.467299999999994     46.703450000000004     47.148949999999992
