18

C      47.698199999999993     48.398299999999985     47.365149999999986
C      48.098500000000001     48.038299999999992     48.680449999999993
C      47.628500000000003     49.621699999999990     46.717050000000000
C      48.274600000000007     49.182699999999997     49.514850000000010
C      47.428800000000003     47.251399999999990     46.490049999999997
C      48.201400000000007     46.594899999999996     48.958650000000006
C      47.988000000000000     50.705900000000000     47.571950000000001
C      48.137900000000002     50.532199999999989     48.996949999999998
C      47.773099999999999     45.870899999999992     46.698650000000001
C      48.229600000000005     45.581599999999995     47.970550000000003
H      47.832800000000006     49.678100000000001     45.590549999999993
H      48.722600000000000     49.228200000000001     50.558950000000010
H      47.277400000000000     47.507099999999994     45.441049999999990
H      48.706699999999998     46.385300000000001     49.815749999999994
H      48.230000000000004     51.600600000000000     47.238549999999989
H      48.591700000000003     51.363299999999995     49.666350000000008
H      47.479900000000001     45.044499999999999     45.909649999999999
H      48.459500000000006     44.399400000000000     48.313450000000003
