18

C      48.215459999999993     48.431099999999994     48.546799999999990
C      47.606960000000001     47.159900000000000     48.243099999999998
C      47.757260000000002     49.632399999999997     48.914299999999997
C      46.189059999999998     47.386099999999999     48.721800000000002
C      49.612259999999992     48.259900000000002     48.552900000000008
C      48.409859999999995     46.012300000000003     47.580699999999993
C      46.329709999999992     49.826800000000006     48.963600000000000
C      45.466179999999994     48.680700000000002     48.781099999999995
C      50.431759999999997     47.200400000000002     48.094700000000003
C      49.833060000000003     46.012500000000003     47.506799999999998
H      48.269659999999988     50.609399999999994     49.018500000000003
H      45.735029999999995     46.404000000000003     48.549400000000006
H      50.186459999999997     49.082999999999998     48.550300000000007
H      47.869759999999999     45.136099999999999     47.159899999999993
H      45.946089999999998     50.863900000000001     49.140799999999999
H      44.471940000000004     48.796099999999996     48.733300000000000
H      51.528059999999996     47.454000000000001     48.148200000000003
H      50.535860000000000     45.390000000000001     46.859200000000001
