18

C      48.327749999999995     47.472499999999997     48.239099999999993
C      47.959850000000003     48.400300000000001     47.031399999999998
C      47.174849999999999     47.067200000000000     49.115000000000002
C      46.574650000000005     48.622799999999998     46.809100000000001
C      49.545150000000000     46.892399999999995     48.477899999999998
C      49.067050000000002     48.968599999999995     46.355100000000000
C      45.912050000000001     47.410300000000007     48.815800000000003
C      45.513249999999999     48.092399999999998     47.612099999999998
C      50.511450000000004     47.380300000000005     47.421799999999998
C      50.342649999999999     48.490700000000004     46.598300000000002
H      47.392450000000004     46.593599999999995     50.128799999999998
H      46.237950000000005     49.297600000000003     45.897300000000001
H      49.860950000000010     46.065200000000004     49.224100000000000
H      49.110650000000000     49.934799999999996     45.871200000000002
H      45.294250000000005     46.986900000000006     49.478699999999996
H      44.460850000000001     48.602300000000000     47.577199999999998
H      51.539149999999999     46.971699999999998     47.497900000000001
H      51.343650000000004     48.962800000000001     46.135899999999999
