6

C      46.051849999999995     48.007149999999996     48.068899999999992
C      48.215850000000003     47.412450000000007     48.366399999999999
H      50.433149999999998     47.553150000000002     47.964999999999989
N      49.301850000000002     47.691950000000006     48.132599999999996
O      45.566850000000002     48.679249999999996     47.145099999999999
O      46.666449999999998     47.320750000000004     48.854900000000001
