46

C      49.554150000000000     46.629049999999992     47.736949999999993
C      47.324350000000010     51.092450000000007     48.050550000000001
C      51.027250000000009     49.890550000000012     50.850549999999998
C      49.125749999999996     47.779250000000012     46.823949999999996
C      50.145350000000008     46.953450000000011     49.037550000000010
C      47.848750000000010     49.925050000000006     46.988250000000008
C      51.580650000000006     48.591950000000004     50.305549999999997
C      48.471350000000001     51.632449999999999     48.830150000000003
C      50.312550000000002     51.091850000000001     50.475549999999998
C      48.948350000000005     49.119450000000008     47.454350000000005
C      50.623950000000008     48.349049999999998     49.351950000000002
C      49.661450000000002     50.693249999999999     49.297250000000005
C      49.754350000000002     49.342649999999999     48.704050000000009
C      49.493750000000006     45.244450000000008     47.207750000000004
C      48.646150000000006     45.053150000000009     46.026150000000001
C      48.314850000000007     46.220250000000000     45.147350000000003
C      48.410250000000005     47.580150000000010     45.553650000000005
C      47.586050000000000     48.524850000000008     44.933350000000004
C      47.034649999999999     49.617750000000008     45.757850000000005
C      50.718649999999997     45.902050000000010     49.960250000000002
C      51.166950000000000     44.578750000000007     49.246350000000007
C      50.010450000000006     44.128050000000009     48.146050000000002
C      45.083650000000006     50.319450000000010     47.555149999999998
C      45.929749999999999     51.203150000000001     48.523550000000000
C      45.645550000000000     50.276350000000001     45.852249999999998
C      49.848050000000001     45.347550000000005     51.119550000000004
H      48.213850000000008     43.994350000000004     45.633949999999999
H      51.263550000000009     49.857250000000001     51.922849999999997
H      51.966549999999998     47.777450000000009     50.961750000000009
H      50.201850000000007     51.965450000000011     51.199650000000005
H      47.529350000000008     45.810949999999998     44.372150000000005
H      47.083250000000007     48.281550000000003     44.077150000000003
H      51.681750000000008     46.122350000000004     50.544650000000004
H      51.601349999999996     43.772550000000003     49.697850000000003
H      51.989850000000004     44.842050000000008     48.616950000000003
H      50.766350000000003     43.233150000000002     47.673550000000006
H      49.298450000000003     43.544150000000009     48.423850000000016
H      45.083150000000003     49.453550000000000     48.053350000000009
H      45.359150000000000     51.473950000000009     49.527749999999997
H      44.010149999999996     50.426450000000010     47.436949999999996
H      45.122950000000003     49.579250000000009     45.201850000000007
H      45.915050000000008     51.250650000000000     45.626950000000008
H      50.269550000000010     44.379950000000001     51.451250000000002
H      48.917249999999996     45.126750000000008     50.645949999999999
H      49.658550000000005     46.277350000000006     51.823549999999997
O      48.730050000000006     52.766849999999998     48.898250000000004
