34

C      47.818300000000001     48.315549999999995     46.552634999999995
C      49.010199999999998     47.718250000000005     47.049834999999987
C      46.715699999999998     43.869750000000003     48.046534999999992
C      46.632300000000001     47.461350000000003     46.571894999999998
C      49.132000000000005     46.316150000000000     47.656975000000003
C      45.897400000000005     45.003850000000000     47.646405000000001
C      47.908799999999999     44.352750000000000     48.731555000000000
C      46.830399999999997     46.158550000000005     47.244374999999991
C      48.022199999999998     45.712250000000004     48.136224999999996
C      47.928500000000000     49.757050000000000     46.217794999999995
C      49.099100000000007     50.525250000000000     46.569074999999998
C      50.343400000000003     49.655550000000005     46.597605000000001
C      50.393900000000002     48.250350000000005     46.847655000000003
C      46.957200000000000     50.812850000000005     45.543625000000006
C      47.581900000000005     52.172950000000000     45.605355000000003
C      48.845399999999998     51.991450000000000     46.131654999999995
C      51.376800000000003     50.753050000000002     46.157925000000006
C      44.502400000000009     44.481349999999999     47.177364999999995
C      47.536100000000005     44.091550000000005     50.296745000000001
H      46.429400000000001     42.926050000000004     47.994564999999994
H      45.832599999999999     47.627850000000002     46.082085000000006
H      50.155600000000007     45.943550000000002     47.955095000000000
H      48.716200000000001     43.543849999999999     48.792265000000000
H      51.103499999999997     47.567750000000004     46.640664999999998
H      47.072100000000006     53.073949999999996     45.432575000000000
H      49.377400000000009     53.064150000000005     45.944535000000002
H      44.167700000000011     43.445250000000001     47.274985000000001
H      43.933599999999998     45.091550000000005     46.499324999999999
H      44.070599999999999     44.674650000000000     48.326764999999995
H      46.586399999999998     43.522950000000002     50.493944999999997
H      47.574399999999997     45.113849999999999     50.791344999999993
H      48.207400000000007     43.361350000000002     50.931844999999996
O      52.066400000000002     51.608850000000004     46.184385000000006
O      45.910700000000006     50.529350000000008     45.068155000000004
