18

C      48.390899999999995     48.797749999999994     48.131099999999996
C      47.761899999999997     47.406049999999993     48.159599999999998
C      48.463099999999997     49.409449999999993     46.836200000000005
C      47.838099999999997     46.884150000000005     46.796599999999998
C      48.530199999999994     49.385350000000003     49.469099999999997
C      47.566599999999994     46.629549999999995     49.356399999999994
C      48.145600000000002     48.723749999999995     45.590199999999996
C      48.008200000000002     47.364149999999995     45.384699999999995
C      48.404899999999998     48.490949999999998     50.646100000000004
C      48.080699999999993     46.996349999999993     50.546599999999998
H      48.963700000000003     50.396649999999994     46.853700000000003
H      47.541600000000003     45.891450000000006     46.810100000000006
H      48.936499999999995     50.374449999999996     49.768900000000002
H      47.036299999999997     45.603350000000006     49.315799999999996
H      48.088399999999993     49.289649999999995     44.654700000000005
H      48.045699999999997     47.076949999999997     44.367699999999999
H      48.301100000000005     48.798149999999993     51.632300000000001
H      48.035399999999996     46.229349999999997     51.202700000000007
