132

C      45.947249999999990     45.405199999999994     44.835459999999998
C      50.347250000000003     46.975300000000004     46.228960000000008
C      49.174549999999996     47.193999999999988     47.141360000000006
C      49.733649999999990     44.517099999999999     45.344960000000007
C      50.307350000000000     45.898699999999991     45.283959999999993
C      47.988050000000001     46.224100000000007     47.258659999999999
C      48.510949999999987     44.037599999999998     44.511760000000002
C      48.518450000000001     45.441499999999991     45.271859999999997
C      47.500549999999997     45.349199999999996     46.339860000000002
C      51.763050000000000     47.682099999999991     46.841759999999994
C      52.060549999999992     48.514899999999997     48.029060000000008
C      50.695949999999996     48.955299999999994     48.605360000000005
C      49.439149999999998     48.047600000000003     48.265260000000005
C      53.636949999999999     50.227599999999995     48.917159999999996
C      53.758549999999993     51.745899999999992     49.442060000000005
C      52.611049999999992     51.039599999999993     49.062359999999998
C      53.426850000000002     48.938800000000001     48.242660000000008
C      50.966449999999988     44.008399999999995     41.522660000000009
C      51.300049999999999     44.785100000000000     42.853060000000006
C      50.090350000000001     49.531499999999994     50.290960000000005
C      50.148549999999993     50.244399999999999     48.844659999999998
C      48.528049999999993     49.197100000000006     50.398860000000006
C      48.659750000000003     48.174599999999998     49.502759999999995
C      47.224750000000000     46.030899999999988     48.693559999999998
C      47.216250000000002     47.338899999999995     49.647859999999994
C      50.111849999999990     44.453199999999995     42.394060000000003
C      49.006549999999990     43.625799999999998     42.922960000000003
C      54.610249999999994     52.875499999999988     49.683859999999996
C      49.140349999999991     45.811199999999999     41.856660000000005
C      49.886150000000001     42.215499999999992     42.795960000000001
C      50.083250000000000     44.009699999999995     46.700760000000002
C      50.529749999999993     50.697999999999993     51.249060000000007
C      51.698649999999994     45.618299999999991     44.020159999999997
C      52.681649999999991     50.726799999999997     56.205959999999997
C      51.299149999999990     53.644999999999996     56.178060000000009
C      45.831949999999992     52.889300000000006     56.548859999999998
C      44.496049999999997     53.519499999999994     56.273660000000007
C      51.505150000000000     50.196699999999993     55.464460000000003
C      49.653549999999996     52.253399999999999     55.534060000000004
C      46.139849999999996     51.643699999999995     55.746060000000007
C      50.241849999999999     50.990599999999986     55.701259999999998
C      48.670649999999995     51.162999999999997     55.382759999999998
C      52.718449999999997     52.303199999999990     54.250360000000008
C      52.670149999999992     54.094499999999996     56.091760000000001
C      51.799349999999990     54.227199999999996     57.484459999999999
C      52.168949999999995     53.564899999999994     54.853659999999998
C      46.678449999999991     53.971999999999994     57.223659999999995
C      45.870449999999991     55.088199999999986     57.475359999999995
C      43.400149999999996     55.550999999999988     57.402960000000000
C      44.617849999999997     54.829700000000003     56.958760000000005
C      51.591650000000001     49.112099999999998     54.380560000000003
C      52.815649999999991     49.722699999999989     53.753160000000001
C      52.958649999999999     51.042600000000007     54.814760000000000
C      49.899449999999995     53.730199999999996     55.898259999999993
C      49.887249999999995     54.284499999999994     54.337460000000000
C      51.503349999999990     54.631599999999992     53.947860000000006
C      50.611350000000002     48.742799999999988     53.310160000000003
C      50.022449999999992     50.277199999999993     52.792360000000009
C      47.311749999999996     50.802300000000002     55.368360000000003
C      54.168049999999987     51.081399999999988     55.871960000000009
C      52.065249999999992     47.712299999999999     55.130459999999999
C      41.074649999999998     55.945499999999996     56.795160000000003
C      52.183549999999997     40.619900000000001     38.605960000000003
C      53.206649999999996     41.347600000000000     37.961530000000003
C      52.130350000000000     42.066800000000001     38.593360000000004
C      52.058149999999991     43.443299999999994     39.147560000000006
C      50.834349999999993     43.548299999999998     40.067760000000007
C      53.364049999999992     44.036000000000001     39.674259999999997
C      50.604950000000002     44.718999999999994     39.047760000000004
C      50.914049999999996     51.479599999999991     48.656060000000004
H      47.400750000000002     43.528499999999994     44.901460000000000
H      53.994349999999997     48.018999999999991     48.490460000000006
H      49.073850000000000     50.492599999999996     48.554560000000002
H      47.646050000000002     49.668799999999990     51.323759999999993
H      47.976450000000000     45.285899999999998     48.976560000000006
H      46.224949999999993     45.864500000000007     48.538259999999994
H      46.607649999999992     47.410799999999995     50.613360000000007
H      46.589550000000003     48.328699999999998     49.199159999999999
H      48.201549999999990     43.711499999999987     42.078860000000006
H      49.517849999999989     46.544699999999992     41.064860000000003
H      47.934349999999988     45.553299999999993     41.718560000000004
H      49.184449999999998     46.107499999999987     42.881760000000007
H      49.379349999999995     41.440500000000000     43.268660000000004
H      50.378950000000003     42.121300000000005     41.820760000000007
H      50.969449999999995     42.284899999999993     43.446760000000005
H      50.542549999999991     43.071600000000004     46.109859999999998
H      50.774149999999999     44.420100000000005     47.382459999999995
H      49.150749999999995     43.529100000000000     47.157659999999993
H      50.099849999999996     51.608699999999999     51.258960000000009
H      51.722549999999998     50.774299999999997     51.176960000000001
H      52.253349999999990     46.672499999999999     43.604860000000009
H      52.451949999999997     44.860100000000003     44.667660000000005
H      45.389849999999996     50.969400000000007     55.277760000000008
H      52.469449999999995     54.222899999999996     58.514159999999997
H      47.687249999999992     53.897300000000001     57.917859999999997
H      46.225650000000002     55.840599999999995     58.097260000000006
H      43.384249999999994     51.578799999999987     55.785560000000004
H      53.603349999999999     49.185299999999998     54.027960000000000
H      53.222749999999991     50.117499999999993     52.713259999999998
H      53.296349999999997     52.493099999999998     53.244560000000000
H      48.997249999999994     54.379999999999995     55.946660000000001
H      49.574349999999988     55.315299999999993     54.328959999999995
H      49.649249999999995     53.437700000000007     53.739459999999994
H      51.854749999999996     55.806500000000000     54.298960000000001
H      51.577349999999996     54.296299999999988     52.812060000000010
H      50.677949999999996     48.132999999999996     52.456459999999993
H      49.544849999999990     48.413899999999998     53.847660000000005
H      49.837149999999994     50.946599999999989     53.480059999999995
H      48.889550000000000     50.188500000000005     52.719259999999998
H      47.227949999999993     49.878000000000000     54.829060000000005
H      42.353949999999998     53.230300000000000     56.132460000000002
H      54.847449999999988     51.808299999999988     55.610759999999999
H      54.716549999999991     50.534399999999991     56.714260000000003
H      51.416950000000000     55.293899999999994     57.603659999999998
H      51.730749999999993     47.586700000000008     56.265260000000005
H      53.329449999999987     47.736399999999989     55.361960000000003
H      51.906149999999997     46.787899999999993     54.532360000000004
H      40.531649999999999     55.737099999999998     57.839559999999999
H      52.123849999999997     39.629800000000003     39.010660000000009
H      54.031250000000000     42.049699999999987     37.485840000000003
H      49.913449999999990     42.884599999999992     39.905260000000006
H      50.773550000000000     51.878000000000000     47.713560000000008
H      50.696249999999992     52.287699999999987     49.234160000000010
N      43.293349999999997     52.691500000000005     56.121159999999996
O      45.907950000000000     45.407599999999988     43.605359999999997
O      46.007649999999998     45.087500000000006     46.033360000000009
O      55.468350000000001     53.574399999999997     49.465060000000001
O      51.364950000000000     47.976299999999995     45.749560000000010
O      42.481250000000003     56.120899999999992     57.906959999999998
O      40.805650000000000     56.370199999999997     55.790660000000003
O      49.919449999999998     45.522700000000000     38.550060000000009
O      54.418849999999999     44.459199999999996     39.787760000000006
