7

C      46.895899999999990     47.577349999999996     47.149299999999997
C      47.786499999999997     48.218249999999998     48.079999999999998
H      48.579699999999988     48.633949999999999     49.871200000000002
H      49.711100000000002     48.608450000000005     48.475600000000000
H      46.288899999999998     47.235550000000003     47.761399999999995
H      46.967999999999989     47.487049999999996     46.128799999999998
N      48.737200000000001     48.764449999999997     48.859799999999993
