18

C      48.382099999999994     48.483649999999990     47.323849999999993
C      47.357399999999998     47.864149999999995     48.112549999999999
C      49.197599999999994     47.644350000000003     46.266549999999995
C      46.951800000000006     46.432549999999999     47.719350000000006
C      48.967500000000001     49.805250000000001     47.342149999999990
C      46.826200000000000     48.670450000000002     49.180850000000007
C      49.008899999999997     46.277549999999998     46.375249999999994
C      47.851799999999997     45.609349999999999     47.014949999999999
C      48.520200000000003     50.508449999999996     48.385649999999998
C      47.487499999999997     49.952249999999999     49.284850000000006
H      50.096699999999998     48.196249999999999     45.796549999999996
H      46.055900000000008     46.052549999999997     47.882249999999999
H      49.879599999999996     50.198250000000002     46.838449999999995
H      45.903300000000002     48.361649999999997     49.641649999999998
H      49.537700000000001     45.453150000000001     45.735950000000003
H      47.668599999999998     44.574050000000000     46.706350000000000
H      49.063299999999998     51.425950000000000     48.627849999999995
H      47.342700000000008     50.266350000000003     50.264049999999997
