64

C      50.650305000000003     43.979004999999994     46.826299999999989
C      46.827825000000011     51.185945000000004     46.135100000000001
C      50.220475000000008     44.825005000000004     45.691800000000008
C      46.980415000000008     49.829404999999994     45.417899999999996
C      51.211165000000001     44.696204999999992     48.102399999999996
C      47.132165000000008     51.083768300000003     47.608300000000007
C      49.857875000000007     46.315704999999994     46.004600000000003
C      47.957835000000010     48.687804999999997     45.630199999999995
C      50.766165000000008     46.493205000000003     49.695299999999996
C      50.330035000000009     47.903705000000002     50.104000000000006
C      48.392125000000007     49.450805000000003     49.388399999999997
C      50.601295000000007     46.046904999999995     48.307499999999997
C      47.767065000000009     49.864104999999995     48.037600000000005
C      49.700375000000008     48.642004999999997     49.046799999999998
C      49.963115000000009     46.912705000000003     47.135799999999996
C      48.282075000000006     48.907304999999994     47.065599999999996
C      49.515425000000008     48.270404999999997     47.693300000000001
C      50.936325000000011     42.586005000000000     46.534500000000001
C      50.290715000000006     41.887204999999994     45.484100000000005
C      49.530385000000010     42.574905000000001     44.368599999999994
C      49.756515000000007     44.004904999999994     44.557800000000007
C      46.061935000000005     52.266425000000012     45.548300000000005
C      45.892875000000011     52.392335000000003     44.145999999999994
C      46.229135000000007     51.095369100000006     43.513600000000004
C      46.453175000000009     49.734904999999998     44.088000000000001
C      50.920195000000014     45.635004999999992     50.922300000000000
C      50.773295000000012     46.037205000000000     52.238499999999995
C      50.459315000000011     47.359705000000005     52.499699999999997
C      50.173345000000012     48.294404999999998     51.417800000000007
C      51.601685000000010     44.404205000000005     50.483399999999996
C      51.701395000000012     43.901704999999993     49.149499999999996
C      51.782985000000004     42.058205000000001     47.682300000000005
C      52.202105000000010     42.482604999999992     48.872499999999995
C      46.270965000000011     51.870155000000004     48.660599999999995
C      45.674385000000008     53.229595000000003     47.835100000000004
C      46.312125000000009     53.570355000000006     46.406900000000000
C      47.734225000000009     54.362565000000004     46.823900000000002
C      44.037045000000020     52.865615000000005     47.606800000000000
H      49.346465000000009     46.634704999999997     45.062099999999994
H      48.458415000000009     48.076305000000005     44.973099999999995
H      47.670395000000006     48.791105000000002     49.850000000000001
H      48.303375000000010     49.857005000000001     50.399999999999999
H      50.575325000000007     40.932504999999992     45.029500000000006
H      49.240425000000009     42.296205000000000     43.368800000000000
H      49.447865000000007     44.438604999999995     43.543200000000006
H      45.655795000000012     53.287125000000003     43.539499999999997
H      45.675305000000009     51.138443000000009     42.501500000000000
H      46.338635000000011     48.919505000000001     43.354400000000005
H      51.242745000000006     45.439904999999996     53.216500000000003
H      50.689225000000000     47.945104999999998     53.498500000000000
H      49.979035000000010     49.269104999999996     51.838699999999996
H      51.750445000000006     43.750604999999993     51.292099999999998
H      52.301645000000008     41.439205000000001     46.979300000000002
H      52.696255000000001     41.676104999999993     49.506700000000002
H      47.251795000000008     52.151185000000005     49.176600000000001
H      45.495865000000009     51.202603000000011     49.057800000000007
H      45.270485000000008     53.820075000000003     48.790799999999997
H      45.683565000000009     54.193435000000008     45.554300000000005
H      47.878245000000007     55.067495000000008     46.026299999999999
H      47.907285000000009     54.782705000000007     47.785299999999999
H      48.735385000000008     53.929155000000009     46.536499999999997
H      43.303744999999999     53.018515000000008     48.541300000000000
H      43.587445000000017     53.266445000000004     46.645299999999999
H      43.990645000000015     51.793857000000003     47.420499999999997
