9

C      48.158499999999997     46.843449999999990     48.441099999999992
C      47.665900000000001     48.078849999999996     47.603100000000012
C      47.485400000000006     49.370849999999997     48.030400000000000
H      47.430300000000003     47.867750000000008     46.522300000000001
H      49.274400000000000     46.828350000000007     48.620200000000011
H      47.993300000000005     46.610450000000007     49.477699999999999
H      47.876000000000005     46.124749999999999     47.769000000000005
H      46.725600000000000     49.875250000000001     47.532400000000010
H      47.689800000000005     49.563949999999998     49.027500000000003
