18

C      48.183399999999992     47.568904999999994     48.298849999999995
C      47.617300000000000     48.751594999999995     47.957250000000002
C      47.340599999999995     46.331314999999996     48.188450000000003
C      46.239300000000000     49.005474999999997     48.132050000000000
C      49.559800000000003     47.082884999999997     48.360950000000003
C      48.717099999999995     49.659444999999998     47.620550000000001
C      45.938099999999999     46.552334999999999     48.437849999999997
C      45.321599999999997     48.004674999999992     48.602550000000001
C      50.648299999999999     48.030445000000000     48.227049999999998
C      50.017299999999999     49.310195000000000     47.851849999999999
H      47.360699999999994     45.386494999999996     47.832250000000002
H      46.012899999999995     50.072204999999997     47.957149999999999
H      49.694299999999998     46.067684999999997     48.500450000000001
H      48.626799999999996     50.613505000000004     47.151250000000005
H      45.021899999999995     45.940644999999996     48.480850000000004
H      44.297300000000000     47.845224999999999     48.848749999999995
H      51.702700000000000     47.830505000000002     48.363950000000003
H      50.675999999999995     50.123404999999991     47.488450000000000
