99

C      46.256799999999991     43.250049999999995     48.728049999999996
C      46.654299999999999     43.814549999999997     50.053450000000005
C      50.277600000000007     43.053750000000001     50.125650000000000
C      50.434200000000004     42.832950000000004     51.576450000000015
C      47.292699999999996     43.294850000000011     47.789650000000009
C      48.133600000000001     44.388449999999999     50.357450000000007
C      49.344899999999996     44.048850000000002     49.511050000000004
C      49.816299999999998     43.552450000000000     52.538050000000005
C      48.640999999999998     43.492849999999990     48.175750000000008
C      48.466099999999997     44.099350000000001     52.032050000000005
C      45.369299999999996     44.005549999999999     50.752450000000003
C      45.049099999999996     44.552250000000001     52.146350000000005
C      46.028399999999998     44.869950000000003     53.210050000000003
C      48.066100000000006     45.310549999999999     51.655650000000009
C      51.134799999999998     42.282350000000001     49.233950000000014
C      52.238600000000005     41.482050000000001     49.571650000000012
C      52.443299999999994     41.309350000000002     51.032950000000007
C      51.625099999999989     41.935250000000003     52.001950000000001
C      48.310499999999990     43.541350000000008     46.741950000000003
C      44.848399999999998     42.457650000000001     48.873449999999998
C      44.335700000000003     43.347949999999997     49.891350000000010
C      47.543400000000005     44.802250000000001     53.081450000000011
C      43.785699999999999     44.672350000000002     49.112150000000007
C      43.557000000000002     42.267949999999999     47.872050000000009
C      49.201400000000007     46.363849999999999     51.838250000000009
C      48.549199999999999     49.836950000000002     50.704550000000005
C      48.556999999999988     51.158349999999999     49.820250000000009
C      43.777799999999999     50.590249999999997     43.209250000000004
C      47.671499999999995     48.668849999999999     50.543750000000010
C      43.592799999999997     49.264349999999993     42.760050000000007
C      44.752799999999993     50.910350000000008     44.260750000000009
C      47.884599999999999     50.693350000000009     48.611650000000004
C      44.008299999999998     46.756249999999994     44.090650000000004
C      44.567799999999998     46.318049999999999     45.334150000000008
C      46.328899999999990     50.243850000000009     46.215350000000008
C      44.198999999999998     48.162050000000008     43.550050000000006
C      46.937100000000001     48.284649999999999     49.346350000000008
C      45.402400000000000     49.844250000000002     45.046050000000001
C      47.042500000000004     49.403550000000003     48.536650000000009
C      45.199399999999997     47.444350000000000     46.055950000000003
C      46.466999999999999     49.169249999999991     47.088050000000003
C      46.009399999999999     47.702950000000001     47.148250000000004
C      44.985499999999995     48.468149999999994     44.830450000000006
C      47.655499999999989     51.941150000000000     47.789350000000006
C      46.859299999999990     51.650950000000002     46.540250000000007
C      46.193399999999997     52.589649999999999     45.661850000000008
C      45.095399999999998     52.185250000000003     44.770250000000004
C      49.155000000000001     50.036749999999998     51.997750000000003
C      49.775099999999995     51.294550000000001     52.238350000000004
C      49.803100000000001     52.586150000000004     51.510750000000009
C      49.168900000000001     52.483949999999993     50.189749999999997
C      48.844999999999999     53.490250000000003     49.216850000000008
C      47.766900000000007     53.313749999999999     48.214550000000003
C      47.263899999999992     54.444749999999999     47.178750000000008
C      46.809100000000001     54.042749999999998     45.562250000000006
C      47.103600000000000     48.003650000000000     51.708550000000010
C      48.267700000000005     47.518450000000001     52.513650000000005
C      49.296599999999998     48.857550000000003     52.962449999999997
C      50.305499999999995     53.737349999999992     52.356450000000002
H      49.789800000000000     45.069949999999992     49.145850000000003
H      49.612799999999993     43.522449999999992     53.615150000000007
H      43.977599999999995     44.846750000000000     52.453250000000004
H      45.488599999999998     45.404750000000007     54.000149999999998
H      50.918700000000001     42.298150000000000     48.106950000000005
H      52.811099999999996     40.972549999999998     48.613550000000004
H      53.204000000000001     40.802750000000003     51.596350000000008
H      51.806599999999996     41.611950000000000     53.012350000000005
H      48.532499999999999     42.799050000000001     46.162250000000007
H      48.417699999999996     44.524249999999995     46.371250000000003
H      44.994999999999997     41.434950000000001     49.207349999999998
H      43.813000000000002     42.685949999999998     50.539650000000009
H      48.065199999999990     45.331550000000007     53.857050000000008
H      44.693100000000001     45.258350000000007     48.644850000000005
H      42.997599999999998     44.498549999999994     48.507950000000008
H      43.447999999999993     45.521949999999990     49.839250000000000
H      43.147599999999997     43.248950000000001     47.466850000000008
H      42.798099999999998     41.818750000000001     48.553050000000006
H      49.946899999999999     46.197450000000003     52.532850000000003
H      49.651699999999998     46.424450000000007     50.898450000000004
H      43.394999999999996     41.435549999999999     47.225650000000009
H      43.417599999999993     51.803049999999999     42.694150000000000
H      42.795999999999999     49.076250000000002     41.999850000000002
H      43.565199999999997     45.921449999999993     43.581650000000003
H      44.546700000000001     45.380949999999999     45.880750000000006
H      44.475700000000003     52.889250000000004     44.048750000000005
H      50.301600000000001     51.517750000000007     53.120650000000005
H      49.079400000000007     54.551949999999998     49.195050000000002
H      46.227100000000000     54.652650000000008     47.525550000000003
H      48.048899999999996     55.197249999999997     46.983450000000005
H      47.751500000000007     54.108849999999997     45.255350000000007
H      46.256599999999999     54.671450000000000     44.871750000000006
H      46.106400000000001     47.282350000000008     51.532050000000005
H      46.424099999999996     48.747450000000001     52.369350000000004
H      47.960400000000000     47.446650000000005     53.587949999999999
H      49.001100000000008     49.373950000000001     53.935750000000006
H      50.249400000000009     48.575150000000001     52.768549999999998
H      45.990099999999998     46.176250000000003     48.560350000000007
N      46.273899999999998     47.198850000000007     48.391550000000002
O      50.684300000000000     54.555850000000000     53.008850000000002
