18

C      49.605899999999991     47.302899999999994     49.789114999999995
C      49.749400000000001     46.960300000000004     48.164805000000001
C      46.392400000000002     48.909300000000002     48.184635000000000
C      47.565800000000003     48.375500000000002     47.302975000000004
C      48.211700000000000     49.074300000000008     46.327775000000003
C      48.218100000000000     46.966600000000000     47.614305000000002
H      50.493699999999997     47.553700000000006     50.264615000000006
H      49.351300000000002     46.382500000000007     50.309905000000001
H      50.272599999999990     45.980699999999999     48.066564999999997
H      48.988199999999999     48.242800000000003     50.102595000000008
H      50.420399999999994     47.780900000000003     47.381875000000008
H      45.896400000000000     49.846400000000003     47.890065000000007
H      46.499600000000001     49.082200000000000     49.277765000000002
H      49.110999999999997     48.506900000000002     45.690094999999999
H      45.506300000000003     48.220100000000002     48.361325000000008
H      47.874800000000000     50.019300000000001     45.888585000000006
H      48.224400000000003     46.346800000000002     46.687735000000004
H      47.349899999999998     46.456500000000005     48.353315000000009
