18

C      47.961599999999990     47.447449999999996     48.363049999999987
C      47.799999999999997     48.694150000000008     47.486350000000002
C      48.056700000000006     46.037950000000002     47.834750000000000
C      48.003000000000000     48.374650000000003     45.986949999999993
C      47.761400000000009     47.542050000000003     49.750249999999994
C      47.568800000000010     49.966450000000002     48.130650000000003
C      48.390400000000014     45.973550000000003     46.423149999999993
C      48.402000000000001     47.054850000000002     45.503249999999994
C      47.540199999999999     48.873649999999998     50.340350000000001
C      47.429699999999997     50.060150000000000     49.609150000000000
H      48.022599999999997     45.068150000000003     48.502750000000006
H      47.866000000000000     49.100650000000002     45.432050000000004
H      47.821899999999999     46.601649999999999     50.357749999999996
H      47.199900000000000     50.854950000000002     47.567549999999997
H      48.572000000000003     45.123649999999998     45.829549999999998
H      48.911000000000001     47.006650000000000     44.604349999999997
H      47.088999999999999     48.818449999999999     51.395650000000003
H      47.275400000000005     50.931849999999997     50.208550000000002
