18

C      47.776349999999994     47.303949999999993     48.211799999999997
C      47.940549999999995     48.798550000000006     47.993200000000002
C      47.357449999999993     46.317250000000001     47.252800000000008
C      47.596550000000001     49.092749999999995     46.629999999999995
C      48.287950000000002     46.642550000000000     49.471299999999999
C      48.543349999999997     49.630750000000006     49.001700000000000
C      46.882249999999992     46.696550000000002     45.899500000000003
C      47.109450000000002     48.097049999999996     45.603600000000000
C      48.911149999999999     47.513149999999996     50.360900000000001
C      49.072949999999999     48.942650000000000     49.973399999999998
H      47.448349999999998     45.252350000000000     47.464399999999998
H      47.246149999999993     50.064250000000001     46.146400000000000
H      48.137049999999995     45.498950000000001     49.593699999999998
H      48.749249999999996     50.747650000000000     48.836199999999991
H      46.337949999999999     46.265050000000002     45.144099999999995
H      46.693849999999991     48.215049999999998     44.539500000000004
H      49.195749999999997     47.212649999999996     51.460499999999996
H      49.662050000000001     49.620049999999999     50.739000000000004
