25

C      46.642399999999995     49.731099999999998     44.856949999999998
C      46.601800000000004     48.468100000000000     45.871849999999995
C      48.306599999999996     47.219799999999999     49.344750000000005
C      47.087600000000002     46.755999999999993     48.697450000000003
C      49.535900000000005     47.404599999999995     48.649349999999998
C      47.093200000000003     46.465399999999995     47.184149999999988
C      47.603699999999996     48.097000000000001     46.677750000000003
C      46.620100000000001     46.375400000000006     50.068649999999991
C      49.555799999999998     46.828700000000005     47.249749999999992
C      48.401600000000009     46.734699999999997     46.479450000000000
C      48.250200000000000     47.803699999999999     50.745750000000001
C      46.911200000000001     47.484699999999997     51.122550000000004
H      46.353100000000005     50.563200000000002     45.472750000000005
H      47.432499999999997     49.473700000000001     44.242750000000001
H      46.174300000000002     47.685600000000001     45.264349999999993
H      45.459200000000003     49.751399999999997     44.478949999999998
H      45.689100000000003     48.710500000000003     46.461650000000006
H      50.540799999999997     47.801799999999993     49.000249999999994
H      46.371699999999997     46.014000000000003     46.353149999999999
H      47.890500000000010     48.597299999999997     47.529150000000001
H      46.113199999999999     45.436799999999998     50.367849999999990
H      50.500499999999995     46.640499999999996     46.589449999999999
H      48.696999999999996     45.993100000000005     45.560450000000003
H      48.900100000000002     48.520299999999999     51.165349999999989
H      46.216500000000003     48.020000000000003     51.757249999999999
