18

C      47.782749999999993     47.990399999999994     47.597200000000001
C      48.231549999999999     48.499600000000001     48.773200000000010
C      46.598849999999999     47.194900000000004     47.741800000000005
C      47.826350000000005     47.832100000000004     49.966300000000011
C      48.272349999999989     48.350099999999991     46.360000000000007
C      49.378749999999997     49.421000000000014     48.626300000000008
C      46.136150000000001     46.516600000000004     48.978800000000014
C      46.864649999999997     46.675300000000000     50.188500000000012
C      49.309949999999986     49.323500000000003     46.037700000000008
C      49.920550000000006     49.745100000000001     47.307400000000008
H      45.945350000000005     47.032299999999999     46.758500000000005
H      48.491949999999989     47.759100000000004     50.731300000000005
H      47.755549999999999     47.884700000000002     45.377900000000004
H      49.892349999999993     49.984999999999992     49.343700000000005
H      45.344250000000002     45.624400000000001     48.896400000000007
H      46.724950000000007     45.933500000000002     50.988999999999997
H      49.785550000000001     49.329300000000003     45.011000000000003
H      50.655749999999998     50.375599999999999     47.474700000000006
