14

H      47.852149999999988     47.548999999999985     48.865549999999999
H      48.010750000000002     47.753399999999999     46.792950000000005
H      49.985749999999996     46.872100000000003     48.214550000000010
H      46.485950000000003     50.414900000000003     50.566049999999997
H      48.715649999999997     46.252799999999993     49.978150000000007
H      46.982450000000000     48.869100000000003     49.853950000000005
H      48.375349999999997     45.585099999999997     48.009050000000009
H      46.277749999999997     48.524799999999999     47.424250000000008
H      46.491450000000000     47.652400000000000     45.433950000000003
H      46.493749999999991     46.686899999999994     46.897450000000006
N      46.954650000000001     47.559299999999993     46.551850000000009
N      48.837750000000000     46.393299999999996     48.697450000000011
O      46.014250000000004     49.819000000000003     49.813250000000004
O      46.625150000000005     48.048800000000000     48.756650000000000
