18

C      48.251049999999992     47.616049999999994     48.619399999999999
C      47.402450000000002     48.229550000000003     47.575700000000005
C      49.439349999999997     46.984450000000010     48.494199999999999
C      48.070149999999998     47.984350000000006     46.187999999999995
C      47.682450000000003     47.696350000000010     49.933100000000003
C      46.104250000000000     48.692549999999997     47.561100000000003
C      49.777450000000002     46.686050000000009     47.176000000000009
C      49.165450000000000     46.972949999999997     45.858100000000000
C      46.336150000000004     48.295950000000005     50.068300000000001
C      45.550049999999999     48.713149999999999     48.998799999999996
H      50.121050000000004     46.904350000000008     49.361899999999999
H      47.422850000000004     48.223950000000002     45.372599999999998
H      47.987150000000000     47.143450000000001     50.639699999999998
H      45.517650000000003     49.205849999999998     46.583000000000006
H      50.885050000000000     46.473950000000002     47.023600000000009
H      49.990549999999999     47.175849999999997     44.992200000000004
H      45.872850000000000     48.565550000000002     51.007799999999996
H      45.114950000000000     49.526049999999998     49.557300000000005
