61

C      48.554993499999995     49.773599999999995     46.337600000000002
C      47.070883500000001     50.055999999999997     46.303700000000006
C      48.212373499999998     47.154750000000000     50.821700000000007
C      46.977893500000000     47.880700000000004     50.449300000000008
C      49.108793499999997     49.131000000000000     47.544700000000006
C      46.147223500000003     49.707400000000000     47.286799999999999
C      48.296793500000000     47.520499999999998     49.477100000000007
C      45.952533500000001     48.428100000000001     49.521900000000002
C      48.188183500000001     48.659500000000001     48.495500000000007
C      46.679043499999999     48.946899999999999     48.415500000000009
C      49.183193499999994     50.797499999999999     45.419899999999998
C      48.066713499999999     51.191100000000006     44.227000000000004
C      46.831253500000003     50.003200000000007     43.861400000000003
C      46.874953500000004     50.976500000000001     45.029899999999998
C      50.139093500000001     45.593069999999997     51.149100000000004
C      48.654423500000000     44.650430000000000     51.483600000000010
C      48.870433499999997     46.018790000000003     51.860700000000008
C      50.621083500000005     49.369199999999999     47.756200000000007
C      51.569523500000003     49.842300000000002     46.722200000000001
C      50.746683499999996     50.842900000000000     45.510500000000008
C      44.587763500000001     50.147199999999998     47.073900000000009
C      44.348123500000000     50.698900000000002     45.811300000000003
C      45.690373500000000     51.891499999999994     45.079500000000010
C      51.377683500000003     46.607070000000000     51.067800000000005
C      48.124423499999999     43.541600000000003     52.014099999999999
C      51.260753500000000     48.211900000000000     51.158000000000001
C      44.103523500000001     51.167900000000003     48.041200000000003
C      43.752663500000004     52.670299999999997     47.523000000000010
C      49.808643499999995     51.968499999999992     46.085099999999997
C      51.348213500000007     45.774650000000001     52.179299999999998
C      52.036643500000004     49.133299999999998     51.826000000000008
C      48.261563500000001     45.065170000000002     52.892899999999997
H      44.843473500000002     48.455500000000001     49.421999999999997
H      48.076533500000004     51.178300000000007     42.986199999999997
H      50.791873500000001     50.124200000000002     48.559100000000001
H      52.146553500000003     46.307140000000004     50.400900000000007
H      52.505653500000001     50.208200000000005     47.009200000000007
H      51.775493500000003     48.944900000000004     46.262000000000000
H      51.162243499999995     50.961799999999997     44.640600000000006
H      44.183173500000002     49.180599999999998     47.087699999999998
H      43.062155500000003     50.805599999999998     45.699800000000010
H      44.357323500000000     49.807199999999995     45.279300000000006
H      45.878463500000002     52.792699999999996     45.728999999999999
H      45.196843500000000     52.021400000000000     44.057200000000009
H      50.819673500000000     48.170900000000003     48.084299999999999
H      48.733623500000000     42.622799999999998     52.106000000000009
H      47.330193500000000     43.000439999999998     51.395899999999997
H      50.337093500000002     48.775199999999998     50.651499999999999
H      51.697413500000003     50.282899999999998     51.533900000000003
H      44.974683500000005     51.333399999999997     48.738900000000001
H      43.329473499999999     50.936900000000009     48.712900000000005
H      43.030846500000003     52.301900000000003     46.708700000000007
H      44.653093500000004     53.045999999999992     46.949200000000005
H      43.516923500000004     53.377200000000002     48.345200000000006
H      49.998253499999997     51.874899999999997     47.031800000000004
H      49.861443500000000     52.977300000000000     45.591800000000006
H      52.099153499999993     44.900759999999998     52.338500000000010
H      52.021153500000004     46.499310000000001     52.914500000000004
H      52.969153499999997     49.049500000000002     52.529600000000002
H      47.238273499999998     45.338729999999998     53.013800000000003
O      46.031123500000000     49.409900000000000     43.258800000000008
