18

C      47.256799999999991     48.777049999999988     47.702999999999989
C      48.302099999999996     47.607349999999997     47.562300000000000
C      46.198799999999999     48.474950000000000     48.585499999999989
C      47.885500000000000     46.300950000000000     48.185700000000004
C      47.620699999999999     49.989749999999994     47.014299999999999
C      49.437500000000000     47.759549999999997     46.720700000000001
C      45.980999999999995     47.334249999999997     49.309999999999995
C      46.846499999999999     46.086149999999996     49.076099999999990
C      49.069699999999997     49.995049999999999     46.759599999999999
C      50.061700000000002     49.084449999999997     46.756699999999995
H      45.412900000000000     49.458049999999993     48.628899999999994
H      48.498599999999996     45.399949999999997     47.775099999999988
H      46.933099999999996     50.856850000000001     46.982999999999997
H      50.184799999999996     46.996850000000002     46.303300000000000
H      45.111400000000003     46.978650000000002     49.696700000000000
H      46.730699999999999     45.143149999999999     49.687799999999996
H      49.540099999999995     50.820050000000002     46.385999999999996
H      50.888599999999997     49.403550000000003     46.397399999999998
