18

C      47.397899999999993     48.481349999999999     48.049099999999989
C      48.432099999999998     47.719450000000009     47.450899999999997
C      47.477499999999999     49.652950000000004     48.780599999999993
C      49.768100000000004     48.496949999999998     47.452500000000001
C      46.075099999999999     47.859350000000006     48.179599999999994
C      48.208399999999990     46.300250000000005     47.227300000000000
C      48.814300000000010     50.154550000000015     48.844200000000001
C      50.068600000000004     49.611649999999997     48.248399999999990
C      45.764000000000003     46.535850000000003     48.245699999999999
C      46.847200000000001     45.807550000000006     47.522300000000001
H      46.719500000000004     50.352250000000012     49.158199999999994
H      50.490699999999997     48.028050000000007     46.756699999999995
H      45.138700000000000     48.226150000000004     48.662199999999999
H      49.005400000000002     45.648350000000008     46.626300000000001
H      48.950699999999991     51.110349999999997     49.373699999999999
H      51.082000000000001     50.130549999999999     48.225499999999997
H      44.917999999999999     45.915950000000009     48.686099999999996
H      46.711900000000000     44.889650000000003     47.008699999999997
