18

C      47.599399999999996     48.395099999999999     48.367944499999993
C      48.348699999999994     47.104299999999995     48.208944499999994
C      46.769000000000005     48.677799999999991     47.072844499999995
C      48.597999999999999     46.592700000000008     46.865744499999998
C      47.469999999999999     49.510300000000001     49.258744499999999
C      49.022300000000001     46.986900000000006     49.595744500000002
C      46.618899999999996     48.055999999999997     45.934844499999990
C      47.759000000000000     47.082700000000003     45.730444499999997
C      48.469700000000003     49.383899999999997     50.302844499999999
C      49.142099999999999     48.081800000000001     50.474444499999997
H      46.022999999999996     49.481099999999998     47.272844499999998
H      48.962000000000003     45.530100000000004     46.683844499999999
H      46.927999999999997     50.469899999999996     49.127744499999999
H      49.636700000000005     46.118800000000007     49.656744499999995
H      46.036600000000007     48.665499999999994     45.133244499999996
H      47.950400000000002     46.487899999999996     44.814844500000000
H      48.558099999999996     50.118600000000001     51.182088500000006
H      49.977000000000004     48.170000000000002     51.185155500000000
