18

C      47.679299999999991     47.937791999999988     47.360999999999990
C      48.003199999999993     47.921391999999990     48.820100000000004
C      47.257700000000000     49.199291999999993     46.733699999999999
C      48.021400000000000     49.190691999999991     49.587200000000003
C      47.559200000000004     46.606192000000000     46.643899999999995
C      48.545299999999997     46.723391999999997     49.418100000000003
C      47.429600000000001     50.384291999999995     47.553099999999993
C      48.242599999999996     50.350791999999991     48.836899999999993
C      48.076399999999992     45.427692000000000     47.443000000000005
C      48.599099999999993     45.448091999999995     48.804799999999993
H      47.258099999999999     49.265591999999991     45.645999999999994
H      48.663299999999992     49.532291999999991     50.380599999999994
H      47.485699999999994     46.472192000000000     45.561500000000002
H      48.815300000000001     47.215891999999990     50.438499999999998
H      47.155500000000004     51.208929000000005     46.899999999999999
H      48.543799999999990     51.532408000000011     49.175999999999995
H      48.150199999999998     44.467591999999989     47.021200000000000
H      48.844499999999996     44.473291999999994     49.434300000000000
