8

C      48.100849999999987     47.065799999999989     47.553999999999995
C      48.125550000000004     46.904899999999998     46.110399999999998
H      48.776949999999999     46.104799999999997     45.686999999999998
H      47.223050000000001     46.753199999999993     45.453299999999999
H      48.490350000000007     48.841899999999995     49.014399999999995
H      48.061350000000004     49.895200000000003     50.546700000000001
O      47.808850000000007     49.852899999999991     49.376300000000001
O      48.251549999999995     47.366500000000002     48.699500000000000
