18

C      47.386174999999994     47.242549999999994     48.438644999999994
C      48.269455000000001     48.073450000000001     47.630685000000000
C      46.066595000000000     47.781150000000004     48.514244999999988
C      48.065994999999994     49.282750000000000     46.753094999999988
C      48.036965000000002     46.302749999999996     49.269344999999987
C      49.502145000000006     47.508850000000002     47.313524999999998
C      45.649774999999998     48.851949999999995     47.571354999999997
C      46.606705000000005     49.578849999999996     46.732964999999993
C      49.473315000000007     46.043450000000000     49.099944999999991
C      50.270205000000011     46.433349999999997     47.907944999999998
H      45.481805000000001     47.423250000000003     49.354744999999994
H      48.942185000000002     49.797450000000005     46.147655000000000
H      47.261185000000005     45.831650000000003     49.852345000000000
H      49.975435000000004     48.094050000000003     46.385324999999995
H      44.688105000000000     49.254150000000003     47.441774999999993
H      46.272835000000001     50.469450000000002     46.490274999999997
H      50.285074999999999     45.530549999999998     49.614345000000000
H      51.311895000000000     45.862349999999999     47.484694999999988
