59

C      46.570049999999988     46.005199999999988     53.453199999999995
C      46.786349999999999     47.259700000000009     53.819899999999997
C      45.868150000000000     45.463400000000007     52.366900000000008
C      44.778649999999999     44.444500000000005     52.014900000000004
C      44.711250000000007     45.679299999999998     51.354700000000001
C      47.143950000000004     46.085499999999996     54.690999999999995
C      45.531549999999996     47.945600000000013     53.068300000000001
C      48.100949999999997     47.250500000000002     50.134000000000000
C      47.914450000000002     48.850800000000007     46.511700000000005
C      48.101150000000004     50.341499999999996     46.197200000000002
C      51.116649999999993     49.661100000000005     42.791800000000002
C      50.381349999999998     51.083399999999997     42.904299999999999
C      48.904349999999994     48.066699999999997     45.615800000000000
C      50.925049999999999     48.753600000000006     43.849899999999998
C      49.656850000000006     51.374099999999999     44.095300000000002
C      49.626649999999998     48.944000000000003     44.762799999999999
C      49.163849999999996     50.345200000000006     45.137200000000000
C      46.984549999999999     48.297400000000010     47.491100000000003
C      46.260750000000002     49.210500000000010     48.382899999999999
C      46.472650000000002     50.683900000000008     48.127700000000004
C      47.090750000000000     51.048400000000015     46.934500000000000
C      52.524850000000001     49.530900000000003     43.509399999999999
C      52.289349999999999     50.028900000000007     42.108699999999999
C      50.822350000000000     51.837100000000007     41.703600000000002
C      46.789950000000005     46.800500000000000     47.704799999999999
C      45.605949999999993     46.373900000000006     48.422600000000003
C      45.092050000000000     47.278300000000002     49.433799999999998
C      45.284549999999996     48.727300000000000     49.246099999999998
C      48.828850000000003     46.503000000000000     45.606099999999998
C      47.456750000000000     46.118800000000007     46.493299999999998
C      44.064849999999993     46.511499999999998     50.304000000000002
C      48.990049999999997     45.688100000000006     46.812300000000000
C      47.352549999999994     46.392800000000008     49.030700000000003
H      52.582750000000004     49.028000000000006     41.506799999999998
H      44.344350000000006     43.721699999999998     51.337699999999998
H      48.129750000000001     45.611699999999999     55.234800000000000
H      44.584450000000004     47.268800000000013     53.315500000000007
H      45.310249999999996     48.902100000000004     53.737900000000003
H      45.717349999999996     48.400599999999997     52.035800000000002
H      52.909149999999997     51.701400000000007     40.777400000000000
H      48.097350000000006     48.384200000000007     50.198999999999998
H      49.008449999999996     46.888000000000005     50.551900000000003
H      50.977050000000006     47.865300000000005     43.285600000000002
H      49.299049999999994     52.278300000000002     44.111600000000003
H      45.774150000000006     51.520200000000003     48.629500000000000
H      46.535049999999998     52.054299999999998     46.862400000000001
H      53.545550000000006     49.283700000000010     43.870400000000004
H      45.060450000000003     45.338700000000003     48.025700000000001
H      44.660749999999993     49.346100000000007     49.779499999999999
H      49.731150000000000     46.325100000000006     47.541499999999999
H      46.709549999999993     45.450299999999999     45.916300000000000
H      49.674949999999995     44.892300000000006     46.538000000000004
H      48.857749999999996     45.919399999999996     44.627299999999998
H      47.355850000000004     45.295600000000007     49.196400000000004
H      47.636349999999993     46.735200000000006     51.099699999999999
H      42.454449999999994     45.746099999999998     50.621299999999998
N      52.355549999999994     51.499700000000004     41.732800000000005
O      42.794950000000000     46.537800000000004     50.112800000000000
O      50.051450000000003     52.017099999999999     40.765200000000000
