18

C      47.740549999999999     46.970499999999994     47.477999999999994
C      47.326549999999997     48.155500000000004     48.440199999999997
C      48.771650000000008     46.139099999999999     47.850500000000004
C      47.257450000000006     47.889399999999995     49.800400000000003
C      47.134649999999993     47.356099999999998     46.105600000000003
C      46.889449999999997     49.405699999999996     47.974700000000006
C      48.754950000000008     45.980699999999999     49.286000000000008
C      48.163150000000002     46.743399999999994     50.194299999999991
C      46.937950000000001     48.595399999999998     45.803699999999999
C      46.879549999999995     49.787599999999998     46.581700000000005
H      49.181150000000002     45.417800000000000     47.141600000000004
H      46.923349999999999     48.513800000000003     50.553899999999992
H      47.197149999999993     46.498900000000006     45.492100000000001
H      46.656750000000002     50.197100000000006     48.783600000000000
H      49.558049999999994     45.275000000000006     49.757300000000008
H      48.446550000000002     46.523300000000006     51.285800000000002
H      46.441950000000006     48.725099999999998     44.714199999999998
H      46.591350000000006     50.724999999999994     46.042500000000004
