5

C      48.094399999999993     48.155199999999994     47.663099999999993
H      48.258899999999990     48.000799999999991     48.830500000000001
H      47.150900000000000     48.875599999999999     47.526499999999999
H      48.283399999999993     47.124400000000001     47.429199999999994
H      48.849100000000000     48.718699999999991     47.169499999999999
