106

C      49.462899999999998     47.629849999999990     50.418349999999990
C      50.643700000000010     47.303649999999998     45.299549999999996
C      48.365400000000008     50.911050000000010     46.870549999999994
C      49.848500000000001     46.901350000000001     49.105350000000001
C      48.979800000000004     48.981249999999996     50.096850000000003
C      50.434100000000001     46.758450000000003     46.634150000000005
C      47.846600000000009     50.746150000000000     48.231250000000003
C      49.374100000000006     49.278950000000002     45.095749999999995
C      47.088900000000010     51.433349999999997     46.826849999999993
C      49.718500000000006     47.463850000000001     47.740949999999998
C      48.486100000000008     49.470750000000002     48.857349999999997
C      48.839600000000004     49.512650000000001     46.461349999999996
C      48.975400000000008     48.760150000000003     47.687550000000002
C      49.576000000000008     47.065750000000001     51.756649999999993
C      50.107700000000008     45.659350000000003     51.718050000000005
C      51.042500000000004     45.247750000000003     50.667050000000003
C      50.640900000000002     45.620550000000001     49.315650000000005
C      51.375600000000006     45.116650000000000     48.122850000000000
C      51.251700000000000     45.484549999999999     46.693550000000002
C      49.111700000000006     49.826249999999995     51.432249999999996
C      48.379600000000003     49.051650000000002     52.586849999999998
C      49.046200000000006     47.721150000000002     52.927550000000011
C      47.978900000000003     46.798650000000002     53.762649999999994
C      48.109200000000001     45.191949999999999     53.845150000000004
C      49.205000000000005     44.683650000000000     54.967849999999999
C      48.457500000000003     43.262650000000001     55.159250000000000
C      49.481800000000007     51.816949999999999     46.168350000000004
C      50.295400000000001     48.356150000000000     44.435850000000002
C      52.066600000000008     44.193150000000003     50.839950000000002
C      46.030800000000006     47.394350000000003     43.548349999999999
C      44.933300000000003     47.916350000000001     44.501750000000001
C      46.799000000000007     51.889850000000003     42.771850000000001
C      46.965200000000003     48.153350000000003     42.688050000000004
C      44.793300000000002     49.382350000000002     44.471149999999994
C      47.659500000000008     50.751650000000005     42.721750000000000
C      45.729600000000005     51.730250000000005     43.715750000000000
C      46.727100000000007     49.579250000000009     42.976550000000003
C      45.755100000000006     50.249350000000000     43.840850000000003
C      46.345200000000006     45.988950000000003     43.756349999999998
C      45.472400000000007     45.102850000000004     44.494150000000005
C      45.214300000000009     48.049550000000004     46.255949999999999
C      44.086700000000008     47.114449999999998     45.259950000000003
C      47.488100000000003     45.447049999999997     43.140749999999997
C      47.876000000000005     43.921050000000001     43.354550000000003
C      46.956900000000005     43.265749999999997     44.253749999999997
C      45.688800000000001     43.656149999999997     44.747349999999997
C      48.222100000000005     46.241750000000003     42.124650000000003
C      48.239900000000006     47.638050000000000     41.932350000000000
C      49.282700000000006     48.670050000000010     41.994649999999993
C      49.059000000000005     50.251550000000002     42.212350000000001
C      44.429900000000004     45.535350000000001     45.537450000000007
C      44.939700000000002     52.926250000000003     44.300250000000005
C      49.105800000000002     48.162450000000000     40.651749999999993
C      50.612700000000004     48.333949999999994     42.903549999999996
C      47.867700000000006     43.255350000000000     41.915850000000006
H      51.301700000000011     46.682749999999999     44.628050000000002
H      47.313600000000008     51.389650000000003     49.097549999999998
H      46.721200000000003     50.618350000000000     45.985050000000001
H      46.539300000000004     52.126249999999992     46.997649999999993
H      50.106300000000005     45.193249999999999     52.792249999999996
H      52.060500000000005     44.298650000000002     48.062150000000003
H      50.107900000000001     49.864849999999997     51.969550000000012
H      48.572700000000005     50.819350000000000     51.099850000000004
H      47.448600000000006     49.144750000000002     52.197649999999996
H      48.661000000000001     49.483249999999991     53.507549999999995
H      49.907800000000009     47.479550000000003     53.811050000000009
H      51.433500000000009     43.361249999999998     46.546250000000001
H      47.020400000000009     46.983950000000000     53.164950000000005
H      47.649400000000000     47.167749999999998     54.754350000000002
H      47.890300000000003     44.432650000000002     52.976350000000011
H      47.218700000000005     44.659550000000003     54.128550000000004
H      50.200100000000006     44.813350000000000     54.474249999999998
H      49.027700000000003     45.394750000000002     55.854450000000014
H      47.447400000000002     43.632050000000000     55.589349999999996
H      48.253300000000003     42.358150000000002     54.636249999999990
H      49.049200000000006     42.838949999999997     56.019850000000005
H      48.897600000000004     52.631250000000001     45.551349999999999
H      49.854100000000003     52.387950000000011     46.918250000000000
H      50.161000000000001     51.262149999999998     45.596649999999997
H      49.154600000000002     50.256549999999997     44.588149999999999
H      48.991900000000001     45.765149999999998     41.460350000000005
H      51.780200000000008     43.011150000000001     50.942949999999996
H      52.383900000000004     44.137749999999997     51.869649999999993
H      52.967799999999997     44.275750000000002     50.164150000000006
H      47.314200000000000     52.903349999999996     42.455449999999999
H      44.140500000000003     50.047950000000007     45.117050000000006
H      43.032200000000003     47.258249999999997     45.047849999999997
H      49.017000000000003     43.974550000000001     43.683850000000007
H      47.478400000000008     42.143349999999998     44.358649999999997
H      44.963300000000004     43.002049999999997     45.432050000000004
H      48.967900000000000     50.536050000000010     41.259349999999998
H      49.733300000000000     50.624250000000004     42.939650000000000
H      44.522200000000005     45.068550000000002     46.573350000000005
H      43.350200000000001     44.713450000000002     45.530550000000005
H      45.545700000000004     53.026549999999993     45.138049999999993
H      43.951800000000006     52.175550000000001     44.561750000000004
H      44.665700000000001     53.856650000000002     43.864949999999993
H      49.818100000000001     47.483350000000002     40.271950000000004
H      48.038900000000005     42.291649999999997     41.766450000000006
H      48.916000000000004     49.081650000000003     39.980149999999995
H      51.345500000000001     49.203449999999997     42.868849999999995
H      51.097300000000004     47.365650000000002     42.430250000000001
H      46.955700000000007     43.144250000000000     41.280850000000001
H      48.559800000000010     44.081150000000001     40.949250000000006
O      45.483200000000004     48.631549999999997     47.135249999999999
S      51.716999999999999     44.073149999999998     45.507050000000007
