18

C      47.773652499999997     48.050799999999995     47.675799999999988
C      48.849612499999992     48.361100000000000     48.517099999999999
C      46.432162500000004     48.362100000000005     47.974999999999994
C      48.763162500000007     49.012200000000000     49.864099999999993
C      47.914412499999997     47.085699999999996     46.443099999999994
C      50.055432499999995     47.550599999999996     48.408199999999994
C      46.423542499999996     49.086400000000005     49.356099999999998
C      47.458052500000008     49.368000000000002     50.321899999999999
C      49.130752500000000     46.595899999999993     46.072499999999998
C      50.126022500000005     46.643800000000006     47.171699999999994
H      45.569793500000003     48.340899999999998     47.277899999999995
H      49.702122500000002     49.353000000000002     50.438399999999987
H      47.111292500000005     47.210100000000004     45.577399999999997
H      50.786272499999995     47.557099999999998     49.286100000000005
H      45.213727500000005     49.057099999999998     49.573199999999993
H      47.247772499999996     50.295099999999998     51.008300000000006
H      49.373102500000002     46.257500000000000     44.991699999999994
H      50.547602499999996     45.704900000000002     46.872399999999999
