21

C      45.750799999999998     47.684949999999986     45.244999999999983
C      48.123900000000013     48.055149999999998     48.295199999999994
C      47.392299999999999     48.391949999999994     49.553699999999992
C      49.549400000000013     48.059150000000002     48.286000000000001
C      48.111200000000004     48.711650000000006     50.760599999999997
C      47.002500000000005     47.634550000000004     47.247500000000002
C      45.938300000000005     48.172750000000008     49.352499999999992
C      50.132100000000001     48.713250000000002     49.451999999999998
C      49.510800000000010     48.873350000000002     50.634299999999996
C      45.506800000000005     47.901449999999997     47.941000000000003
C      45.915700000000001     48.387250000000009     46.401600000000002
H      45.188000000000002     48.438249999999996     44.322699999999998
H      50.137100000000004     47.659350000000003     47.495099999999994
H      47.481000000000002     48.746449999999996     51.677300000000002
H      47.207500000000003     46.606949999999998     46.976199999999992
H      45.196600000000004     48.646150000000006     49.950199999999995
H      51.219199999999994     48.906549999999996     49.295599999999993
H      50.179800000000007     48.957550000000012     51.549799999999991
H      44.780800000000006     46.831850000000003     47.955999999999989
H      46.257100000000001     49.538150000000002     46.360199999999992
O      45.776599999999995     46.461849999999998     45.073200000000000
