5

C      47.764899999999990     47.880049999999997     47.879364999999993
H      47.076200000000000     47.236050000000006     47.140495000000001
H      47.785899999999998     47.823350000000005     48.859504999999999
H      47.875699999999995     48.763949999999994     47.386634999999998
H      48.923800000000000     47.601849999999999     47.822194999999994
