18

C      48.830449999999985     47.835520000000002     47.150889999999997
C      47.548449999999995     48.464849999999998     47.554640000000006
C      50.065350000000002     48.522180000000006     47.332820000000012
C      47.485449999999993     49.602869999999996     48.472380000000001
C      48.626349999999995     46.419260000000023     46.876280000000001
C      46.172049999999992     47.858150000000009     47.238180000000000
C      49.964549999999996     49.832620000000006     47.957410000000010
C      48.707850000000001     50.328700000000012     48.527160000000002
C      47.341450000000002     45.717360000000028     46.948190000000004
C      46.063749999999992     46.494839500000012     47.129339999999999
H      51.094249999999995     47.990170000000006     47.547490000000010
H      46.624050000000004     50.071960000000004     49.039050000000003
H      49.612450000000003     46.174360000000021     46.840580000000003
H      45.154149999999994     48.017540000000011     47.622140000000002
H      50.918050000000001     50.313900000000004     47.936100000000010
H      48.549749999999996     51.188340000000011     49.159419999999997
H      47.180249999999994     44.811659999999989     47.057880000000004
H      44.905750000000005     46.007660000000030     47.057750000000006
