72

C      51.668659999999988     48.516649999999984     45.772649999999992
C      46.931449999999998     45.972250000000003     47.695549999999997
C      47.609430000000003     46.713449999999995     49.005250000000004
C      47.478089999999995     52.190049999999999     44.086650000000006
C      48.464569999999995     50.646349999999998     45.938350000000000
C      45.394019999999998     46.468149999999994     47.063950000000006
C      47.427170000000004     48.221850000000003     48.802850000000007
C      47.575460000000007     49.409150000000011     45.993049999999997
C      47.927769999999995     51.687749999999994     46.892949999999999
C      46.578590000000005     47.104649999999992     46.572150000000008
C      47.069590000000005     48.370850000000004     47.103250000000003
C      46.745090000000005     44.496749999999992     47.498050000000006
C      48.044389999999993     43.864649999999997     47.237450000000010
C      47.373959999999997     46.132750000000001     50.431550000000001
C      48.408330000000007     51.240849999999995     44.647850000000005
C      50.475239999999999     49.715750000000000     44.104950000000002
C      50.441540000000003     49.197250000000011     45.444950000000006
C      49.426590000000004     49.839050000000000     46.528649999999999
C      45.433359999999993     48.016549999999995     46.847450000000009
C      44.435119999999998     45.681349999999995     46.696849999999998
C      45.353300000000004     44.116450000000000     46.849950000000007
C      46.579650000000001     48.825749999999999     50.043950000000009
C      47.043850000000006     48.762850000000000     51.358649999999997
C      46.452529999999996     47.569249999999997     50.919150000000002
C      48.750320000000002     46.177149999999997     49.673550000000006
C      46.432360000000003     49.817650000000000     52.310350000000000
C      48.555909999999997     49.069050000000004     51.372650000000007
C      49.728620000000006     48.380749999999992     52.298749999999998
C      43.019999999999996     45.111649999999997     47.137349999999998
C      46.355919999999998     52.803550000000001     44.676450000000003
C      47.275559999999999     43.268749999999997     48.178550000000001
C      49.416139999999999     50.637749999999997     43.726250000000007
C      52.848640000000003     48.113550000000004     44.825050000000005
H      47.395030000000006     44.188949999999991     51.743549999999999
H      51.952900000000000     48.860950000000003     46.788250000000005
H      51.498819999999995     47.588549999999998     46.487250000000003
H      48.306100000000001     51.848649999999992     47.895949999999999
H      51.182400000000001     49.277649999999994     43.300049999999999
H      49.836129999999997     50.608049999999992     47.319950000000006
H      44.726900000000001     48.627749999999992     47.526949999999999
H      46.823099999999997     51.557749999999999     46.915149999999997
H      44.242270000000005     46.107050000000001     45.720849999999999
H      44.840770000000006     43.184049999999999     47.312250000000006
H      45.623519999999999     43.622349999999997     45.899950000000004
H      48.280590000000004     48.863050000000001     48.737850000000009
H      45.619829999999993     49.399149999999992     49.900149999999996
H      45.710539999999995     47.428150000000002     51.730550000000008
H      49.620159999999998     46.424049999999994     49.143450000000001
H      48.772040000000004     44.950549999999993     49.920150000000007
H      45.941670000000002     49.310150000000007     53.377549999999999
H      47.031840000000003     50.546449999999993     52.699350000000010
H      45.881789999999995     50.461749999999995     51.526350000000008
H      49.016459999999995     49.050349999999995     50.280050000000003
H      48.778070000000000     50.319050000000004     51.437250000000006
H      50.778139999999993     48.825249999999997     52.077849999999998
H      49.642520000000005     49.164149999999992     53.048950000000005
H      49.748360000000005     47.411450000000002     51.882550000000009
H      42.817600000000013     45.086649999999992     48.347250000000003
H      42.093000000000004     45.610050000000001     46.642650000000003
H      42.773000000000025     44.077050000000000     46.877350000000007
H      46.160460000000000     53.094349999999991     45.607150000000004
H      45.511369999999999     53.393649999999994     44.118750000000006
H      47.652670000000001     52.435350000000000     42.990750000000006
H      46.753799999999998     42.606350000000006     48.762349999999998
H      49.055400000000006     43.547250000000005     46.968450000000004
H      47.135490000000004     49.506750000000011     44.981549999999999
H      49.413129999999995     50.910150000000002     42.622450000000001
H      52.964380000000006     47.048349999999999     44.931449999999998
H      53.906999999999996     48.806850000000011     45.010750000000002
H      52.597120000000004     47.995249999999999     43.706550000000007
H      45.960890000000006     45.027549999999991     51.889350000000007
N      46.693209999999993     44.923249999999996     51.079750000000004
