18

C      47.658149999999992     48.287049999999994     48.234449999999988
C      47.683640000000004     47.497549999999997     47.004549999999995
C      48.683249999999994     49.264050000000005     48.741649999999993
C      49.141250000000007     47.638849999999998     46.738349999999997
C      46.586220000000004     47.965049999999998     49.170249999999996
C      46.778669999999998     46.503349999999998     46.658749999999998
C      50.089850000000006     49.319649999999989     48.195549999999997
C      50.347250000000010     48.437449999999991     47.021249999999995
C      45.540890000000005     47.097349999999999     48.874949999999998
C      45.592379999999999     46.504950000000001     47.500450000000001
H      48.476549999999996     50.090949999999999     49.070049999999995
H      49.076950000000004     46.612749999999998     45.981549999999999
H      46.445190000000004     48.500349999999990     50.177350000000004
H      46.943170000000002     45.909050000000001     45.822649999999996
H      50.794850000000004     50.071649999999998     48.606449999999995
H      51.263849999999998     47.879149999999996     46.814549999999997
H      44.779250000000005     46.972049999999996     49.668849999999992
H      44.736150000000002     46.382950000000001     46.661449999999995
