18

C      47.245299999999993     47.986749999999994     48.459099999999985
C      48.657100000000000     47.881050000000002     48.018199999999993
C      46.737400000000001     49.088049999999996     47.653999999999996
C      49.099199999999996     48.460549999999998     46.763199999999998
C      46.695099999999996     47.248049999999992     49.658299999999997
C      49.486000000000004     47.152050000000003     48.729599999999991
C      47.049399999999999     49.660849999999996     46.453800000000001
C      48.306299999999993     49.179450000000003     45.870099999999994
C      47.721899999999991     46.329650000000001     50.252799999999993
C      49.069600000000001     46.359849999999994     49.811599999999999
H      45.644700000000000     49.673149999999993     48.142200000000003
H      50.075899999999990     48.192149999999998     46.402799999999999
H      45.571899999999999     47.508250000000004     49.752700000000004
H      50.428100000000001     47.066450000000003     48.311599999999999
H      46.503799999999998     50.393749999999997     45.795299999999997
H      48.785100000000000     49.700749999999999     44.975499999999997
H      47.613399999999999     45.614549999999994     51.024500000000003
H      49.571199999999990     45.606250000000003     50.357199999999992
