40

C      48.384299999999996     47.927579999999992     46.464899999999993
C      47.760399999999997     47.009779999999999     45.562700000000000
C      46.091900000000003     44.725079999999998     49.416499999999999
C      48.390800000000006     47.540279999999989     47.940300000000008
C      47.225100000000005     45.698879999999996     45.855300000000000
C      46.929600000000001     45.967679999999994     49.722700000000003
C      46.277200000000001     44.452479999999987     48.035899999999998
C      47.405700000000003     46.577179999999991     48.319400000000002
C      47.048900000000003     45.557679999999998     47.235399999999998
C      48.844500000000004     49.351679999999995     46.118200000000002
C      48.859900000000003     49.897479999999995     44.833100000000002
C      48.258400000000002     48.865479999999998     44.032499999999999
C      47.840700000000005     47.476779999999998     44.249800000000000
C      49.530800000000006     50.134479999999989     47.234999999999999
C      50.032500000000006     51.352179999999997     46.971900000000005
C      49.661300000000004     49.600679999999990     48.609799999999993
C      48.820300000000003     48.469879999999996     49.022800000000004
C      47.490299999999998     46.952880000000000     50.684199999999997
C      48.200400000000002     46.640279999999997     51.941600000000001
C      47.796600000000005     49.766479999999994     50.886300000000006
C      46.078499999999998     47.076079999999997     51.034300000000002
H      50.437500000000007     51.581299000000008     44.419200000000004
H      45.427500000000002     44.371379999999995     50.180700000000002
H      46.649900000000002     45.281679999999987     45.184699999999999
H      45.593400000000003     43.620879999999993     47.489800000000002
H      48.032100000000007     49.047480000000000     42.987299999999998
H      47.604199999999999     46.978479999999998     43.392000000000003
H      50.212899999999998     50.056779999999996     49.239300000000000
H      48.150300000000001     46.882079999999995     53.012700000000002
H      49.323700000000002     46.733179999999997     51.760900000000007
H      47.795600000000000     45.619979999999991     52.443100000000001
H      48.348300000000002     50.565179999999991     50.228700000000003
H      48.022799999999997     49.737279999999991     52.236899999999999
H      46.816300000000005     50.191779999999987     50.794600000000003
H      45.807300000000005     47.965079999999993     50.520499999999998
H      46.010300000000001     46.709079999999993     52.150599999999997
H      49.142199999999995     51.081479999999992     43.276000000000003
N      49.424300000000009     51.206979999999994     44.289200000000001
N      47.939500000000002     48.396279999999997     50.127899999999997
O      50.572499999999998     52.379120000000007     46.872399999999999
