18

C      48.321950000000001     47.862509999999986     48.461649999999992
C      47.506850000000000     47.992385999999996     47.227350000000008
C      48.789950000000005     46.472495000000009     48.606550000000006
C      47.036249999999995     46.813395000000000     46.478749999999998
C      48.407449999999997     48.980975000000001     49.423650000000002
C      47.000450000000001     49.341764999999995     46.814450000000001
C      48.371549999999999     45.321295000000006     47.839050000000007
C      47.385850000000005     45.498795000000001     46.770750000000000
C      48.066550000000007     50.295194999999993     48.829050000000002
C      47.359350000000006     50.585515000000001     47.586550000000010
H      49.691149999999993     46.661195000000006     49.409450000000000
H      46.433650000000000     47.038095000000027     45.639249999999997
H      49.073850000000007     48.873685000000009     50.360750000000003
H      46.308850000000007     49.539114999999995     46.006750000000004
H      49.034649999999999     44.386395000000007     47.761950000000006
H      46.928049999999999     44.912494999999993     46.021250000000002
H      47.997550000000004     51.056004999999999     49.662050000000001
H      46.862150000000000     51.613604999999993     47.329050000000002
