34

C      48.646899999999981     49.394669999999984     47.816534999999995
C      48.663199999999989     50.796269999999993     47.663965000000005
C      50.802899999999994     50.811369999999997     51.664295000000003
C      49.209899999999990     48.739769999999993     48.901695000000004
C      49.044499999999999     51.910905000000014     48.476394999999997
C      50.607399999999998     49.566369999999992     51.010895000000005
C      50.172799999999995     51.958572000000004     50.878595000000004
C      49.932599999999994     49.800569999999993     49.641895000000005
C      49.644700000000000     51.419705000000008     49.675195000000002
C      48.007399999999990     48.251069999999999     46.884194999999998
C      47.775799999999990     48.817470000000000     45.456955000000001
C      48.107999999999990     50.107270000000000     45.114905000000000
C      48.574599999999990     50.981269999999995     46.161744999999996
C      47.552799999999991     46.986570000000000     47.200324999999999
C      47.113399999999999     46.166069999999991     46.202655000000000
C      47.297499999999999     46.534869999999998     44.780484999999999
C      47.352399999999989     47.906970000000001     44.402524999999997
C      48.735199999999992     47.390670000000000     49.343595000000001
C      45.514299999999992     44.148470000000003     47.425854999999999
C      45.988299999999995     45.052570000000003     46.342275000000001
C      46.138700000000000     43.717269999999999     46.177644999999998
H      51.554299999999998     50.944969999999998     52.515095000000002
H      49.344299999999990     52.972030000000004     48.131625000000000
H      51.187899999999999     48.534869999999998     51.152794999999998
H      50.384299999999996     52.862790000000004     51.240795000000006
H      48.149400000000000     50.366669999999999     44.004624999999997
H      48.932599999999994     52.105010000000007     45.978535000000001
H      46.866099999999989     45.815069999999992     43.997925000000002
H      46.752399999999994     48.182769999999991     43.484904999999998
H      49.174999999999997     46.785870000000003     50.242895000000004
H      44.445700000000002     44.185270000000003     47.628235000000004
H      46.479699999999994     43.027969999999996     45.352915000000003
H      46.169799999999995     44.122969999999995     48.454494999999994
N      48.064499999999995     46.602170000000001     48.543194999999997
