18

C      47.684034999999994     47.536949999999990     48.370750000000001
C      48.365314999999995     48.700550000000000     47.592250000000007
C      46.532745000000006     47.792049999999996     49.190150000000003
C      48.117874999999998     49.977149999999988     48.122550000000004
C      48.084305000000001     46.099349999999994     48.483249999999998
C      49.672844999999995     48.172749999999986     46.974249999999998
C      46.051985000000002     49.190950000000008     49.192750000000004
C      46.722844999999992     50.337350000000001     48.633150000000001
C      49.278694999999999     45.736549999999994     47.889949999999999
C      49.907064999999989     46.803649999999998     47.130450000000010
H      45.956464999999994     46.906949999999995     49.479450000000000
H      48.745274999999992     50.847049999999996     47.980550000000008
H      47.407854999999998     45.472149999999999     49.149050000000003
H      50.205924999999993     48.654149999999994     46.183050000000009
H      45.166775000000001     49.851549999999996     49.816949999999991
H      46.382495000000006     51.401050000000005     49.031149999999997
H      49.496234999999999     44.598949999999995     47.650250000000000
H      50.833224999999999     46.238749999999996     46.806650000000005
