18

C      48.351699999999994     48.401649999999989     47.805549999999997
C      47.614899999999992     47.234350000000006     48.250550000000004
C      49.448499999999996     49.057550000000006     48.566750000000006
C      47.914099999999991     46.901550000000000     49.585749999999997
C      47.909899999999993     49.168949999999995     46.620350000000002
C      46.699299999999994     46.523749999999993     47.342250000000000
C      49.890799999999999     48.563050000000004     49.861749999999994
C      48.865399999999994     47.564650000000000     50.364850000000011
C      46.881399999999999     48.640150000000006     45.841850000000001
C      46.268699999999995     47.352850000000004     46.129950000000001
H      50.039099999999991     50.039150000000006     48.684350000000002
H      47.707799999999992     45.865150000000000     50.047850000000004
H      48.504399999999990     50.183449999999993     46.446550000000002
H      45.994500000000002     45.816550000000007     47.819350000000007
H      50.635599999999997     49.057650000000010     50.478850000000001
H      49.285899999999998     47.043049999999994     51.153849999999998
H      46.463200000000001     49.125950000000003     44.846150000000002
H      45.364400000000003     46.804149999999993     45.802550000000004
