18

C      47.437749999999994     48.380099999999985     47.794499999999992
C      48.479649999999999     47.376299999999993     47.591899999999995
C      47.980849999999997     49.664099999999998     47.299599999999998
C      49.854050000000008     47.534100000000002     47.187299999999993
C      46.214350000000003     48.290199999999992     48.513700000000000
C      47.963150000000006     46.166999999999994     47.957300000000004
C      49.253350000000005     49.945500000000003     46.813599999999994
C      50.258950000000006     48.921500000000002     46.884199999999993
C      45.691350000000007     47.053999999999995     48.931100000000001
C      46.674250000000008     45.996999999999993     48.656999999999996
H      47.481550000000006     50.564999999999991     46.778499999999994
H      50.557650000000002     46.732799999999990     47.034399999999998
H      45.689749999999997     49.256200000000000     48.914199999999994
H      48.479050000000008     45.125700000000002     48.070700000000002
H      49.581949999999999     50.947899999999997     46.658900000000003
H      51.258749999999999     49.252599999999994     46.573599999999999
H      44.741250000000001     46.962899999999998     49.426400000000001
H      46.568649999999998     45.052100000000003     49.047700000000006
