18

C      47.331799999999987     48.189699999999988     47.591599999999993
C      48.453800000000001     47.546299999999995     48.426800000000000
C      46.816000000000003     49.495199999999997     48.073999999999998
C      48.767799999999994     48.240699999999997     49.646900000000002
C      47.338700000000003     47.683299999999996     46.284099999999995
C      48.939500000000010     46.282599999999995     48.021000000000001
C      47.304699999999997     50.384999999999998     49.143599999999999
C      48.259799999999998     49.594699999999996     49.968299999999999
C      47.525700000000001     46.254599999999996     45.927399999999999
C      48.411400000000000     45.540399999999998     46.880099999999999
H      46.148899999999998     49.781699999999994     47.190100000000001
H      49.078699999999998     47.911199999999994     50.593599999999995
H      46.756100000000004     48.148199999999996     45.306399999999996
H      49.851100000000002     45.953299999999992     48.402099999999990
H      47.022900000000007     51.496500000000005     49.233599999999996
H      48.660800000000009     49.821199999999997     51.014200000000002
H      46.927199999999999     45.916499999999992     44.985799999999998
H      48.802999999999997     44.503499999999995     46.582000000000001
