18

C      48.147200000000005     48.498049999999999     47.411974999999991
C      47.694000000000003     47.588150000000006     48.508713000000000
C      47.116500000000002     49.486950000000007     47.012774999999991
C      46.484000000000009     47.561050000000009     49.214731999999998
C      49.407200000000003     48.433450000000008     46.845474999999993
C      48.584900000000005     46.621350000000007     49.152667000000008
C      45.937700000000007     49.455750000000009     47.838374999999999
C      45.522500000000008     48.688750000000006     49.018038000000004
C      50.237300000000005     47.377150000000007     47.445274999999995
C      49.800800000000010     46.661050000000003     48.571597000000004
H      47.137700000000009     50.216549999999998     46.060074999999998
H      46.442000000000007     46.904550000000008     49.882105000000003
H      49.717700000000008     49.085450000000009     46.099874999999997
H      48.262500000000003     45.918950000000002     49.939925000000002
H      45.226600000000005     50.187250000000006     47.769075000000001
H      44.571100000000001     48.727350000000008     49.397064999999998
H      51.428899999999999     47.212350000000008     47.131374999999991
H      50.485100000000003     45.783450000000002     48.904392999999999
