18

C      47.295650000000002     48.269649999999992     47.549949999999995
C      48.511850000000010     47.701250000000002     48.331149999999994
C      47.737949999999998     49.355450000000005     46.655649999999994
C      49.876850000000005     48.253050000000002     48.436549999999997
C      46.075150000000008     47.545649999999995     47.495549999999994
C      48.155650000000009     46.523949999999999     49.070650000000001
C      49.013050000000007     49.990949999999998     46.735450000000000
C      49.924350000000004     49.545850000000002     47.711449999999999
C      45.837050000000005     46.354250000000008     48.316450000000003
C      46.886949999999999     45.873649999999998     49.035849999999996
H      47.091549999999998     49.909949999999995     46.032150000000001
H      50.581249999999997     47.987250000000003     49.235149999999990
H      45.038750000000007     47.678449999999998     47.113849999999999
H      48.868650000000002     46.461150000000004     49.967849999999999
H      49.008949999999999     50.988349999999997     46.086249999999993
H      51.032550000000001     49.649349999999998     47.997049999999987
H      44.967449999999999     45.812349999999995     48.420749999999998
H      46.470849999999999     45.011650000000003     49.758150000000001
