18

C      47.929899999999996     47.214549999999988     48.059499999999986
C      48.141300000000001     48.700049999999997     48.029199999999989
C      48.164600000000007     46.488250000000001     49.319800000000001
C      48.344400000000007     49.458449999999992     49.275499999999994
C      47.659800000000004     46.350749999999998     46.860900000000001
C      48.240600000000001     49.561850000000000     46.779299999999992
C      48.309600000000003     47.165749999999996     50.526499999999984
C      48.432199999999995     48.645149999999994     50.489399999999989
C      47.670300000000005     47.240950000000005     45.687399999999997
C      47.865300000000005     48.789049999999996     45.619699999999995
H      48.336900000000000     45.350149999999992     49.470600000000005
H      48.387199999999993     50.536049999999996     49.285999999999987
H      47.567100000000003     45.328949999999999     46.705099999999987
H      48.282400000000003     50.671050000000001     46.844499999999996
H      48.381800000000013     46.356850000000001     51.317500000000010
H      49.065500000000000     49.026750000000000     51.415100000000010
H      46.934500000000000     46.764149999999994     44.988599999999991
H      47.699000000000005     49.113750000000003     44.584899999999990
