18

C      48.364099999999993     48.354799999999997     48.298349999999992
C      48.005199999999995     47.460500000000003     47.189949999999996
C      49.384300000000003     48.331899999999997     49.124250000000004
C      49.214399999999991     46.560099999999998     47.035849999999996
C      47.546299999999995     49.609500000000004     48.412750000000003
C      46.649000000000001     47.579199999999993     46.702950000000001
C      50.519299999999994     47.554799999999993     48.950749999999999
C      50.107499999999995     46.468399999999995     48.027450000000002
C      46.262999999999998     49.559699999999999     47.791049999999998
C      45.759799999999998     48.587899999999998     46.920850000000002
H      49.560499999999998     49.259400000000007     49.895550000000000
H      49.008199999999995     45.917200000000001     46.165149999999997
H      47.795700000000004     50.438799999999993     49.073549999999997
H      46.148800000000001     46.741800000000005     46.104450000000000
H      51.295300000000005     47.745600000000003     49.448350000000005
H      50.761199999999995     45.558699999999995     48.100250000000003
H      45.723900000000000     50.441300000000005     48.198050000000009
H      44.704699999999995     48.638100000000001     46.530749999999998
