5

C      47.975800000000000     48.002749999999999     47.759249999999994
H      48.844999999999999     48.446749999999994     48.503349999999998
H      47.228600000000000     48.920349999999999     47.695350000000005
H      47.155000000000001     47.542349999999999     48.345349999999996
H      48.468900000000005     47.079650000000001     47.496650000000002
