9

C      47.513899999999992     47.516599999999997     47.909249999999993
C      48.122099999999996     48.509999999999991     47.331050000000005
C      48.308000000000000     49.271199999999993     48.706050000000005
H      47.767500000000005     48.780199999999994     46.502549999999999
H      48.950899999999997     50.168099999999995     48.625150000000005
H      47.226800000000004     49.296499999999995     49.267550000000000
H      48.867799999999995     48.661799999999999     49.497450000000001
H      47.686900000000001     45.831900000000005     48.896249999999995
O      47.049100000000003     46.538200000000003     48.474450000000004
