18

C      48.033099999999990     47.382749999999994     47.263249999999992
C      47.734399999999994     47.386550000000000     48.680450000000000
C      46.902799999999999     47.995249999999999     46.376450000000006
C      46.585599999999999     48.158950000000004     49.171849999999992
C      49.328299999999999     46.908950000000004     46.742649999999998
C      48.917299999999997     46.993350000000007     49.423349999999999
C      45.953599999999994     48.997050000000002     46.786349999999999
C      45.696399999999997     48.754850000000005     48.259550000000004
C      50.423100000000005     46.375550000000004     47.491150000000005
C      50.089500000000001     46.385350000000003     48.906049999999993
H      47.078599999999994     48.204750000000004     45.458649999999999
H      46.475899999999996     48.279250000000005     50.258250000000004
H      49.464100000000002     47.059250000000006     45.717649999999999
H      48.736300000000000     47.237049999999996     50.541350000000001
H      45.567200000000000     49.875749999999996     46.163750000000000
H      44.696299999999994     49.127350000000000     48.742649999999998
H      51.303700000000006     46.124250000000004     47.017049999999998
H      50.958300000000008     46.216650000000001     49.509850000000000
