36

C      50.333749999999995     47.199599999999997     50.035849999999996
C      48.292649999999995     45.080400000000004     44.279150000000001
C      45.068849999999998     50.785200000000003     48.143550000000005
C      46.725349999999992     49.238900000000001     49.340649999999997
C      47.700350000000000     45.781000000000006     45.720450000000000
C      45.844849999999994     49.689000000000000     48.153350000000003
C      47.243049999999997     47.804699999999997     49.459150000000008
C      46.826849999999993     46.966999999999999     45.684250000000006
C      48.012749999999997     45.832000000000008     48.061149999999998
C      46.641449999999992     47.736400000000003     46.918149999999997
C      47.287849999999992     47.119700000000002     48.155749999999998
C      46.254049999999992     49.113000000000000     46.889350000000007
C      47.966949999999997     47.320200000000000     50.653550000000010
C      49.162149999999997     46.363300000000002     50.438950000000006
C      48.329949999999997     45.185100000000006     49.443250000000006
C      46.026650000000004     47.349299999999999     44.372050000000002
C      48.268850000000000     45.120600000000003     46.766249999999999
C      46.888350000000003     46.898600000000002     51.686750000000004
H      49.102350000000001     44.397400000000005     44.496549999999999
H      48.446050000000000     45.902300000000004     43.564650000000000
H      45.862250000000003     49.596800000000002     45.767250000000004
H      48.359349999999992     48.238300000000010     51.132249999999999
H      49.293250000000000     45.818300000000008     51.391950000000008
H      48.868449999999996     44.299900000000008     49.493650000000002
H      47.471549999999993     45.150000000000006     50.127650000000003
H      45.344449999999995     46.656300000000002     44.062849999999997
H      45.608149999999995     48.222200000000001     44.837649999999996
H      46.471949999999993     47.466400000000007     43.369550000000004
H      48.659449999999993     44.107399999999998     46.774850000000001
H      47.267250000000004     44.370400000000004     44.044350000000009
H      47.573250000000002     46.549500000000002     52.630449999999996
H      46.196050000000000     47.773300000000006     52.166749999999993
H      46.167050000000003     46.243300000000005     51.059150000000002
O      51.251350000000002     47.859500000000011     49.901850000000010
O      44.748649999999998     51.892600000000002     47.960050000000010
O      46.789950000000005     50.126599999999996     50.152650000000008
