18

C      48.063699999999990     48.606499999999983     48.123249999999992
C      47.599800000000002     47.356899999999996     47.667950000000005
C      48.574700000000007     49.777800000000013     47.421049999999994
C      47.436899999999994     47.134099999999989     46.176649999999995
C      48.093800000000002     48.637699999999995     49.595050000000001
C      47.284000000000006     46.223199999999991     48.524249999999995
C      48.151899999999998     49.636500000000012     46.056250000000006
C      47.760300000000001     48.267399999999995     45.548450000000003
C      47.896400000000000     47.524999999999991     50.402349999999998
C      47.486300000000000     46.198200000000000     49.959249999999997
H      48.982299999999995     50.657300000000006     47.951250000000002
H      47.297899999999998     46.051000000000002     46.366050000000001
H      48.342100000000002     49.656099999999995     49.975650000000002
H      47.017700000000005     45.428500000000000     48.133650000000003
H      48.454599999999999     50.330799999999996     45.482050000000001
H      48.035600000000002     48.600600000000000     44.469149999999999
H      47.763300000000001     47.473399999999998     51.530850000000001
H      47.408400000000000     45.342699999999994     50.644850000000005
