18

C      48.089849999999998     47.956549999999993     46.991749999999989
C      47.634150000000005     47.293650000000000     48.127849999999995
C      49.569149999999993     47.919649999999997     47.075849999999996
C      48.674850000000006     46.620449999999998     48.977649999999997
C      47.019850000000005     48.797750000000001     46.382349999999995
C      46.220649999999992     47.057549999999999     48.536149999999999
C      50.510350000000003     47.506450000000001     48.155050000000003
C      50.108249999999998     46.724950000000000     49.256950000000003
C      45.666650000000004     48.984349999999999     46.729450000000000
C      45.370049999999992     47.844049999999996     47.761049999999997
H      49.988650000000007     48.430050000000001     46.181649999999998
H      48.566850000000002     46.273350000000001     50.069550000000000
H      47.694649999999996     49.489149999999995     45.930450000000000
H      45.859549999999999     46.362449999999995     49.136849999999995
H      51.678449999999998     47.895750000000000     48.027149999999992
H      50.960949999999997     46.449849999999998     49.716949999999997
H      44.782449999999997     49.726649999999999     46.349249999999998
H      44.321550000000002     47.838549999999998     47.567650000000000
