5

C      47.921024999999986     47.981899999999996     47.998449999999998
H      48.931795000000001     48.543199999999999     48.129949999999994
H      48.544294999999998     47.662099999999995     47.157049999999998
H      47.068204999999999     48.653199999999998     47.394149999999996
H      47.818014999999995     47.346800000000002     48.842950000000002
