18

C      47.207349999999991     48.368299999999998     48.119149999999991
C      48.621750000000006     48.863800000000012     47.561949999999996
C      46.519350000000003     47.137000000000000     47.950950000000006
C      48.934150000000002     48.139300000000006     46.336150000000004
C      46.618450000000010     49.081700000000005     49.210949999999997
C      49.262250000000009     49.853999999999999     48.365350000000007
C      47.585750000000004     46.263900000000007     47.344350000000006
C      48.327650000000006     46.818300000000008     46.199150000000003
C      47.334150000000008     50.056100000000001     49.866950000000003
C      48.787050000000008     50.366500000000002     49.536750000000012
H      45.623550000000009     46.903900000000007     48.548249999999996
H      49.766050000000007     48.532400000000010     45.896950000000004
H      45.506050000000002     48.710200000000000     49.625150000000005
H      50.493949999999998     50.115000000000009     48.133949999999999
H      47.423950000000005     45.190100000000001     47.372450000000001
H      48.501050000000006     46.082500000000003     45.255049999999997
H      47.107650000000007     50.724900000000005     50.744950000000003
H      49.273850000000010     50.809899999999999     50.285150000000002
