246

C      37.130049999999997     50.440049999999999     44.297769999999979
C      44.979450000000007     54.881650000000008     44.429069999999996
C      44.518149999999999     56.214250000000000     44.109969999999990
C      48.285150000000009     58.166750000000008     45.968769999999992
C      46.504650000000005     55.021949999999997     44.532869999999988
C      44.992449999999998     57.506450000000001     44.632669999999990
C      48.396950000000011     56.712150000000001     45.605569999999979
C      46.776750000000007     58.716850000000001     45.935569999999998
C      47.048749999999998     56.227650000000004     45.295169999999985
C      46.136350000000000     57.423449999999995     45.421869999999998
C      47.331049999999998     54.052650000000007     43.779269999999997
C      48.141050000000000     53.354050000000008     44.859869999999987
C      49.689450000000001     56.075350000000007     45.950169999999986
C      47.508950000000006     58.712049999999998     47.272069999999985
C      47.338650000000008     58.302550000000004     48.873269999999991
C      46.672449999999998     59.966749999999998     45.152269999999980
C      43.941250000000004     54.676050000000004     45.577569999999987
C      40.695250000000009     36.280250000000002     38.189269999999993
C      40.035249999999998     35.946650000000005     36.821869999999990
C      55.244750000000003     38.582650000000008     46.963769999999997
C      55.899450000000009     39.224450000000004     48.119369999999989
C      55.828350000000007     38.454349999999998     49.415969999999980
C      55.088650000000008     37.238950000000010     49.363469999999985
C      54.506750000000004     36.749150000000007     48.119469999999993
C      54.646050000000010     37.362650000000009     46.896569999999990
C      52.912549999999996     40.098450000000007     49.479869999999991
C      55.895450000000004     43.075650000000010     55.004709999999996
C      55.441150000000015     43.845150000000004     53.837669999999981
C      59.173750000000005     39.665050000000008     51.558069999999979
C      55.993950000000005     41.542250000000010     54.991216000000001
C      59.074750000000016     41.065950000000008     50.634369999999990
C      55.304549999999999     42.967750000000009     52.685769999999984
C      57.987749999999998     39.118750000000006     52.466369999999991
C      57.709850000000010     41.654450000000004     50.654769999999985
C      55.188949999999998     42.098150000000004     50.193569999999994
C      57.920350000000006     40.328650000000010     51.195469999999986
C      55.584350000000008     40.836050000000007     53.923269999999988
C      56.752850000000002     39.796750000000010     51.994369999999989
C      54.917150000000014     41.594150000000006     52.515869999999993
C      54.711650000000013     40.886850000000003     51.161969999999997
C      55.489650000000005     40.311250000000008     52.503869999999992
C      55.552250000000008     43.465850000000010     51.116469999999985
C      56.530150000000013     42.459650000000011     50.141369999999995
C      55.792850000000008     43.785050000000005     56.285150000000002
C      55.539750000000005     45.270950000000006     56.182050000000004
C      55.330050000000007     45.912150000000004     54.820362799999998
C      55.720750000000002     45.357250000000001     53.540069999999986
C      56.326050000000002     45.865050000000004     52.317569999999989
C      56.162050000000015     44.827250000000006     51.282769999999985
C      56.011250000000011     43.145450000000004     57.478870000000001
C      55.692349999999998     43.946950000000008     58.716319999999996
C      55.341049999999989     45.327050000000007     58.484839999999998
C      55.327250000000014     46.262350000000005     57.248950000000001
C      56.220050000000008     40.799850000000006     56.329269999999994
C      55.944450000000010     41.594850000000008     57.672739999999990
C      56.645949999999992     40.563850000000009     47.827469999999984
C      55.555750000000010     42.919450000000005     47.942869999999978
C      55.835349999999998     41.697650000000010     48.920369999999984
C      54.792850000000008     47.286750000000005     55.147978000000009
C      55.590950000000014     48.437450000000005     56.165390000000002
C      55.100550000000005     47.693650000000005     57.385089999999991
C      60.701150000000005     40.123050000000006     52.072069999999989
C      61.130749999999999     39.961650000000006     53.606569999999984
C      60.020550000000007     39.566850000000009     54.506069999999994
C      58.410050000000005     39.036250000000003     53.805269999999993
C      61.996249999999996     40.982250000000008     54.244269999999986
C      58.335949999999990     37.670949999999998     52.783169999999998
C      53.263449999999999     40.319150000000000     50.795369999999984
C      62.109950000000005     38.781650000000006     53.604869999999991
C      35.017560000000010     46.206650000000010     45.145969999999984
C      45.491050000000001     48.652549999999998     44.641069999999978
C      45.570050000000002     47.216749999999998     44.302969999999988
C      54.831049999999998     45.114950000000007     46.476069999999993
C      52.506749999999997     43.781750000000009     45.610069999999993
C      46.777950000000004     49.456550000000000     44.760369999999995
C      46.912050000000001     46.879049999999999     44.332769999999996
C      54.506750000000004     46.591349999999998     46.123169999999980
C      51.669750000000008     44.791750000000008     45.149669999999979
C      49.479150000000011     49.508650000000010     45.042769999999990
C      53.207450000000001     48.227950000000007     45.276269999999997
C      49.350550000000005     46.622450000000008     45.261069999999989
C      48.217150000000011     48.905150000000006     44.939369999999990
C      48.179450000000010     47.438450000000010     44.850269999999995
C      53.173050000000011     46.746250000000011     45.783269999999987
C      50.638750000000009     48.683150000000005     45.170769999999990
C      51.729550000000010     46.185250000000011     45.668269999999993
C      50.727150000000002     47.224250000000005     45.398969999999984
C      50.359650000000002     44.262050000000009     44.354769999999981
C      49.179150000000000     45.211750000000009     44.759169999999997
C      47.875350000000005     44.602150000000002     44.429969999999997
C      46.679949999999998     45.420450000000010     43.923169999999985
C      44.145750000000000     49.067850000000007     45.139469999999982
C      42.158850000000008     45.043150000000004     43.225169999999991
C      44.523650000000011     46.140050000000009     43.792369999999991
C      45.380150000000008     45.046450000000000     43.704769999999996
C      50.688450000000003     43.850850000000001     42.849469999999997
C      47.155850000000008     50.860850000000006     45.080769999999987
C      53.817349999999998     44.064950000000010     46.271269999999987
C      51.977350000000008     49.181750000000001     45.178569999999993
C      54.503149999999998     42.846350000000008     46.801069999999996
C      39.578949999999999     41.943350000000009     41.462869999999995
C      38.328150000000001     41.625250000000001     42.136369999999985
C      40.075150000000001     46.544750000000008     43.035469999999989
C      38.706150000000001     46.338050000000010     43.681369999999987
C      40.428249999999998     43.128250000000008     41.541669999999996
C      37.844750000000005     42.822150000000001     42.912969999999987
C      40.812050000000006     45.283750000000005     42.676969999999997
C      37.946950000000008     45.138050000000007     43.968469999999996
C      39.996250000000011     44.075350000000007     42.561369999999997
C      38.651450000000004     43.936550000000004     43.255169999999993
C      39.779350000000001     40.955950000000009     40.432169999999985
C      39.144050000000000     39.692850000000007     40.223569999999995
C      37.244250000000001     40.489350000000009     41.453069999999997
C      40.460450000000002     47.900150000000004     43.472869999999986
C      39.394549999999995     48.620750000000008     44.006669999999986
C      38.325850000000010     47.699350000000010     44.274969999999996
C      35.093690000000002     39.781650000000006     43.951969999999989
C      41.187950000000008     41.159150000000004     39.584269999999989
C      41.609849999999994     40.007950000000008     38.749169999999992
C      40.983950000000000     38.750450000000008     38.796469999999985
C      39.820749999999997     38.605849999999997     39.563269999999989
C      42.207049999999995     42.141750000000009     39.748769999999993
C      41.702650000000006     43.078850000000010     40.721769999999992
C      42.616650000000000     44.169150000000009     40.764569999999992
C      42.289349999999999     45.394550000000002     41.692069999999987
C      41.313550000000006     37.691050000000004     37.959869999999995
C      35.393250000000002     44.902750000000005     44.820569999999989
C      48.857150000000004     42.019650000000006     42.942169999999990
C      49.506250000000001     43.153750000000009     42.096769999999992
C      36.545150000000007     39.715050000000005     43.851169999999996
C      37.684850000000004     40.139750000000006     42.945269999999994
C      36.255450000000003     44.082050000000002     46.036869999999993
C      36.663150000000009     44.763849999999998     44.632569999999987
C      33.789300000000004     40.692749999999997     41.745669999999990
C      34.441760000000009     40.221750000000007     42.870669999999990
H      46.353150000000007     60.871649999999995     45.613269999999979
H      44.862150000000007     54.104050000000008     43.643469999999994
H      43.836550000000010     56.329749999999997     43.339769999999987
H      49.113550000000011     58.889350000000000     45.636369999999978
H      44.437150000000010     58.413649999999997     44.565369999999980
H      47.022350000000010     53.560450000000010     42.877969999999991
H      48.257050000000000     54.057850000000009     45.671369999999989
H      49.136550000000007     53.093049999999998     44.387369999999990
H      49.647050000000007     54.927450000000000     46.149169999999991
H      49.956750000000007     56.762950000000004     46.697369999999985
H      46.577449999999999     58.825450000000004     49.161669999999980
H      47.767450000000004     59.804750000000006     47.587369999999986
H      48.148550000000007     58.537550000000003     49.387669999999979
H      47.120049999999999     57.248150000000003     48.916569999999986
H      46.041249999999998     59.937450000000005     44.357669999999985
H      47.797650000000004     60.223750000000003     44.747269999999986
H      42.930950000000003     55.157650000000004     45.453269999999989
H      44.423649999999995     54.777949999999997     46.528669999999991
H      43.738350000000004     53.493250000000003     45.576969999999989
H      42.808650000000007     38.180250000000008     36.533169999999998
H      39.069850000000002     35.506250000000009     36.401669999999996
H      41.588049999999996     35.457850000000008     38.374269999999996
H      39.794250000000005     36.267550000000007     38.787569999999988
H      40.369650000000007     36.825050000000005     36.366169999999997
H      40.595950000000009     35.128350000000005     36.205569999999994
H      48.815649999999998     43.956850000000010     41.992669999999990
H      55.020750000000014     39.348950000000009     46.158569999999997
H      56.536950000000012     38.794350000000009     50.119869999999985
H      55.416250000000012     36.484550000000006     50.070369999999997
H      54.085349999999998     35.752450000000003     48.230969999999985
H      54.319750000000006     37.009950000000011     45.816169999999978
H      53.445950000000003     40.524549999999998     48.589269999999985
H      59.510150000000003     40.926850000000009     49.612569999999984
H      56.497750000000003     46.870750000000008     52.145669999999996
H      56.674550000000004     45.245350000000009     50.461669999999991
H      55.600749999999998     43.496650000000010     59.794430000000006
H      55.189549999999990     45.736049999999999     59.537349999999996
H      55.702450000000006     40.015450000000008     56.401719999999997
H      57.045850000000009     40.078550000000007     56.295780000000001
H      56.713650000000008     41.324150000000010     58.414020000000001
H      55.070850000000000     41.333350000000010     58.212429999999998
H      56.516350000000010     41.042850000000008     46.677369999999996
H      57.733650000000004     40.431250000000006     48.005269999999996
H      55.275950000000002     43.579650000000008     48.746769999999998
H      56.475250000000010     43.339950000000009     47.466569999999983
H      52.633450000000003     40.095150000000004     51.811569999999989
H      54.798050000000011     47.936450000000008     54.245969999999978
H      53.871150000000007     47.312850000000005     55.501725999999998
H      56.592350000000003     48.225450000000009     55.605137999999997
H      55.583050000000007     49.487250000000010     56.338349999999998
H      55.489150000000002     48.155350000000006     58.407959999999996
H      53.960349999999998     47.888750000000009     57.691730000000000
H      61.331949999999999     39.729550000000010     51.207569999999983
H      60.948550000000004     41.033950000000004     51.626569999999987
H      60.418750000000010     38.960150000000006     55.355204999999998
H      59.426650000000016     40.156550000000010     55.114072000000007
H      57.766150000000003     39.478450000000009     54.588869999999979
H      61.710850000000015     42.049150000000004     53.963969999999989
H      63.077649999999998     41.003450000000008     53.752969999999983
H      62.009850000000007     41.041850000000004     55.357529000000000
H      59.302849999999999     37.575450000000004     52.144169999999988
H      58.466550000000005     36.743250000000010     53.334669999999988
H      51.897050000000007     39.762450000000008     49.261569999999992
H      63.022849999999998     38.988549999999996     52.989369999999994
H      62.522350000000010     38.088349999999998     54.353169999999992
H      61.469150000000006     37.915750000000010     53.049269999999986
H      35.949650000000005     46.738850000000006     45.253069999999994
H      34.452000000000005     46.809350000000009     44.327569999999994
H      34.240860000000005     46.294649999999997     45.847669999999994
H      42.818550000000002     46.178750000000008     45.021769999999989
H      55.084750000000007     47.443450000000006     46.327469999999984
H      49.704950000000004     50.482050000000008     44.619569999999989
H      54.004849999999998     48.808550000000004     45.171969999999988
H      50.091950000000004     43.293349999999997     44.760769999999987
H      47.766250000000007     43.544650000000004     43.971869999999996
H      42.177750000000003     43.976750000000003     43.556469999999990
H      45.123150000000003     44.014850000000010     43.414169999999999
H      51.644550000000002     43.344950000000004     42.923669999999987
H      51.333550000000010     44.649350000000005     42.390969999999996
H      52.035050000000005     42.838850000000001     45.542069999999995
H      53.142549999999993     48.028950000000009     44.245069999999998
H      52.174750000000010     50.306550000000009     44.864469999999997
H      55.949849999999991     45.485650000000000     46.417369999999984
H      54.669850000000004     42.309750000000001     45.695069999999987
H      53.597950000000004     42.309649999999998     47.168769999999988
H      36.851649999999999     42.795950000000005     43.317469999999986
H      36.240250000000010     40.468950000000007     41.111069999999998
H      41.260850000000005     48.394650000000006     43.202869999999990
H      37.402650000000001     47.951850000000007     44.307069999999996
H      34.478680000000004     39.228350000000006     44.728669999999987
H      42.369750000000003     40.180250000000008     38.119869999999992
H      38.967350000000003     37.796450000000007     39.470769999999987
H      43.095849999999999     42.338950000000004     39.114369999999994
H      43.699249999999999     43.860750000000010     40.472469999999987
H      42.604950000000009     46.486450000000005     41.329769999999996
H      34.711890000000004     44.318450000000006     44.318669999999997
H      49.444850000000010     43.127250000000004     40.963069999999988
H      38.528250000000007     39.488050000000008     43.079869999999985
H      32.922350000000009     40.303050000000006     41.390669999999986
H      33.323039999999999     41.734650000000009     41.633869999999987
H      36.867650000000005     39.362450000000003     44.791669999999989
H      42.805850000000007     47.386750000000006     43.597369999999998
N      43.028350000000010     46.261550000000007     43.996869999999987
N      37.761950000000006     39.721050000000005     40.413669999999996
O      36.093950000000000     50.049450000000007     44.479569999999988
O      47.263350000000003     52.015850000000007     45.343169999999986
O      43.125750000000004     49.245150000000010     45.552369999999996
O      42.527950000000011     37.631250000000001     37.256969999999995
O      36.890750000000004     44.421650000000007     46.976369999999989
O      48.506850000000007     41.166350000000008     43.553069999999991
S      39.015149999999998     50.535950000000007     44.151269999999997
