8

C      47.756549999999997     47.856900000000003     47.310549999999992
C      48.338449999999995     48.041000000000011     48.858449999999991
H      47.901849999999996     48.981200000000001     49.263949999999994
H      46.600650000000002     47.731200000000001     47.185249999999996
H      48.184950000000001     47.018799999999999     46.664349999999999
H      47.837850000000003     47.289200000000008     49.335650000000001
H      47.932850000000002     48.838000000000008     46.788249999999991
H      49.399349999999998     48.234600000000000     48.961349999999996
