51

C      49.061749999999989     46.548899999999989     48.698949999999989
C      49.779050000000005     47.206000000000003     49.838249999999988
C      47.337550000000000     51.023899999999998     47.109149999999993
C      48.627749999999999     51.500800000000012     47.680649999999993
C      48.095250000000000     47.426000000000002     48.082349999999998
C      49.637149999999998     48.667299999999997     49.937249999999992
C      47.043550000000003     49.609000000000009     47.298249999999996
C      49.531150000000004     50.926199999999994     48.641849999999998
C      48.058349999999997     48.823000000000008     48.082849999999993
C      49.166649999999997     49.498000000000005     48.833449999999999
C      48.996749999999999     45.065399999999997     48.680649999999993
C      49.997650000000000     44.342100000000002     49.566649999999996
C      50.861750000000008     45.016599999999997     50.579749999999997
C      50.640850000000007     46.390199999999993     50.743250000000003
C      46.180850000000000     51.859499999999997     46.385949999999994
C      46.681249999999999     53.077200000000005     45.947249999999997
C      47.845949999999995     53.582800000000006     46.367949999999993
C      48.874350000000000     52.845400000000012     47.172049999999999
C      47.882650000000005     44.457200000000000     47.902649999999994
C      46.716150000000006     42.412499999999994     47.156449999999992
C      47.841749999999998     42.957499999999996     47.843249999999998
C      50.045849999999994     42.930199999999999     49.383849999999995
C      46.881450000000008     45.369100000000003     47.501949999999994
C      46.802749999999996     46.829300000000003     47.441449999999996
C      45.802349999999997     47.486300000000000     46.733349999999994
C      45.921550000000003     48.976399999999998     46.543249999999993
C      44.977150000000002     51.073100000000011     45.792849999999994
C      45.361849999999997     49.636300000000006     45.489249999999998
C      51.274650000000001     47.148300000000006     51.912449999999993
C      46.078949999999999     49.533000000000001     44.009749999999997
C      44.968449999999997     51.689099999999996     47.353049999999996
H      50.354949999999995     49.167300000000012     50.614349999999995
H      50.227150000000002     51.548999999999992     49.012150000000005
H      51.568450000000006     44.520799999999994     51.215449999999997
H      46.029550000000008     53.710900000000009     45.382649999999998
H      48.223250000000000     54.587900000000005     46.083949999999994
H      49.653150000000004     53.612700000000004     47.395849999999996
H      46.670449999999995     41.412099999999995     46.783449999999995
H      48.730150000000002     42.531099999999995     47.966849999999994
H      46.037450000000000     45.048000000000002     46.938249999999996
H      45.232549999999996     46.938000000000002     46.060349999999993
H      44.307250000000003     51.600700000000003     45.301049999999996
H      44.442950000000003     49.097600000000000     45.230749999999993
H      45.941150000000000     50.458600000000004     43.226349999999996
H      47.032950000000007     49.178500000000000     44.254049999999992
H      46.024750000000004     48.593599999999995     43.279049999999998
H      44.426150000000000     52.680400000000006     47.550349999999995
H      45.296950000000002     51.179199999999994     48.182749999999999
H      45.683650000000007     42.920000000000002     47.003949999999996
O      51.692749999999997     47.679599999999994     52.773650000000004
O      50.281650000000006     41.820099999999996     49.239049999999999
