74

C      46.316999999999993     52.050849999999997     45.237749999999991
C      46.916999999999987     50.777850000000008     45.804549999999999
C      52.390699999999995     49.099449999999997     47.122750000000003
C      49.156499999999994     46.683749999999996     50.408549999999998
C      48.232799999999997     50.269550000000002     45.656649999999992
C      52.169599999999988     48.676750000000006     48.574349999999988
C      50.542399999999986     47.215750000000007     50.131549999999997
C      51.015199999999993     49.341650000000008     46.556949999999993
C      46.149699999999996     48.826749999999997     47.338949999999990
C      47.971299999999985     46.950449999999996     49.584550000000000
C      48.923400000000001     48.196249999999999     45.011949999999999
C      50.872399999999985     48.014249999999997     48.970750000000002
C      48.579099999999997     48.966950000000004     46.264550000000000
C      49.859199999999987     48.416649999999997     46.636849999999995
C      47.599599999999995     48.407450000000004     47.216749999999998
C      48.272999999999996     47.821950000000008     48.450150000000001
C      49.680399999999992     47.846350000000008     48.057650000000002
C      44.998400000000004     52.435650000000003     44.996549999999999
C      43.927099999999996     51.489849999999997     45.490150000000000
C      44.414500000000004     50.494850000000007     46.255449999999996
C      45.777999999999992     50.013349999999996     46.540149999999990
C      51.179699999999997     50.436250000000008     45.615150000000007
C      53.826199999999986     49.139649999999996     46.868150000000000
C      54.506599999999992     48.906250000000007     48.088249999999995
C      53.484299999999990     48.566250000000004     49.134250000000002
C      48.850399999999993     45.843049999999998     51.664749999999998
C      49.561899999999994     48.814450000000001     43.602649999999997
C      45.064599999999999     44.861550000000001     48.102750000000007
C      44.021400000000000     44.313150000000000     49.095050000000001
C      48.961499999999987     44.145150000000008     51.419750000000001
C      46.455899999999986     44.484749999999998     48.364349999999995
C      44.445599999999999     43.822650000000003     50.414250000000003
C      48.239899999999992     43.801849999999995     50.142749999999999
C      46.297499999999999     43.517150000000008     52.275349999999996
C      46.780299999999997     44.112950000000005     49.816649999999996
C      45.924300000000002     43.883550000000007     50.837150000000001
C      44.817399999999992     45.448450000000001     46.736550000000001
C      44.422100000000000     46.344550000000005     45.622349999999997
C      42.138599999999997     45.373250000000006     46.808450000000001
C      42.668199999999999     44.327850000000005     48.893549999999998
C      45.850499999999997     45.922950000000007     45.750549999999997
C      41.765100000000004     44.752050000000004     47.988250000000001
C      43.441599999999994     45.862349999999999     46.625349999999997
C      46.974799999999988     45.082150000000006     46.240249999999996
C      47.807199999999995     43.644550000000002     52.407849999999989
H      48.882599999999996     50.952050000000007     45.156050000000000
H      51.522499999999994     47.286549999999998     50.686850000000000
H      45.509699999999995     48.158850000000008     47.897050000000000
H      46.882399999999990     46.694550000000000     49.860450000000000
H      48.183799999999991     47.165849999999999     44.927949999999996
H      44.560299999999998     53.216950000000004     44.306849999999997
H      42.745999999999995     51.619350000000004     45.438749999999999
H      43.784899999999993     49.726850000000006     46.769550000000002
H      54.290499999999994     49.414650000000002     45.830449999999999
H      55.483800000000002     48.547149999999995     48.191350000000007
H      53.539199999999994     48.494250000000001     50.287649999999992
H      50.003599999999992     46.048449999999995     52.029550000000000
H      47.740099999999984     46.033449999999995     52.017150000000008
H      50.369099999999989     49.406250000000007     43.832749999999997
H      49.793199999999999     48.192650000000008     42.637149999999998
H      48.670099999999991     49.269250000000007     43.342250000000000
H      47.227799999999988     52.562450000000005     44.752549999999999
H      50.135399999999990     43.773950000000006     51.586149999999996
H      43.611099999999993     43.311250000000008     50.813150000000000
H      48.722499999999997     43.895950000000006     49.181149999999995
H      45.579599999999999     43.330450000000006     53.205249999999999
H      41.521799999999999     45.501250000000006     46.010550000000002
H      42.206299999999999     43.941250000000004     49.719749999999998
H      40.516199999999998     44.537749999999996     48.120249999999999
H      47.928299999999993     45.087849999999996     45.586850000000005
H      48.379999999999995     44.449549999999995     53.362850000000002
H      48.247599999999991     42.783049999999996     52.792650000000002
N      47.368600000000001     44.489849999999997     47.426449999999996
O      51.101500000000001     51.306450000000005     44.874150000000000
