54

C      48.114049999999985     45.863949999999988     50.265669999999986
C      46.868250000000003     49.532449999999997     43.967569999999988
C      52.091750000000005     45.160349999999994     49.869169999999990
C      49.196349999999995     48.903250000000000     43.529570000000000
C      48.440849999999998     47.184549999999987     52.633770000000005
C      46.552549999999997     48.586949999999987     44.731569999999998
C      51.699650000000005     45.385349999999988     48.737969999999997
C      46.911550000000005     46.155450000000002     49.522169999999996
C      48.814350000000005     46.164949999999990     46.433669999999999
C      46.551549999999992     47.092849999999999     47.136669999999988
C      49.106250000000003     47.668649999999985     44.233969999999992
C      48.490650000000002     46.122349999999983     51.652266000000004
C      50.066549999999992     45.713249999999988     45.762269999999994
C      47.351849999999999     46.502049999999997     48.213369999999991
C      47.759050000000002     47.632049999999992     44.855869999999989
C      49.221850000000003     45.784649999999999     49.331769999999999
C      47.508650000000003     46.847549999999998     46.055169999999997
C      48.787750000000003     46.221349999999987     47.953469999999989
C      45.197850000000003     48.310350000000000     45.404869999999995
C      45.279150000000001     47.783649999999994     46.740869999999994
C      52.030349999999999     45.776049999999998     47.236770000000000
C      51.133349999999993     45.051749999999998     46.196469999999998
C      45.805350000000004     50.380849999999981     43.567969999999995
C      44.574650000000005     50.435249999999996     44.382569999999994
C      44.018349999999998     49.181349999999995     45.010169999999995
C      50.640450000000001     45.644250000000000     49.672369999999994
C      53.188350000000000     45.746749999999992     50.545369999999998
C      48.183449999999993     49.808449999999993     43.257269999999998
C      43.125749999999996     51.255150000000000     43.671969999999995
C      48.105149999999995     44.618349999999992     51.506287000000007
C      43.286450000000002     49.814949999999996     46.267369999999993
H      50.202150000000003     49.099750000000000     43.122569999999989
H      45.958749999999995     46.430349999999990     49.908669999999994
H      44.444350000000000     47.277549999999991     47.397569999999995
H      53.167450000000002     45.735649999999993     46.987469999999995
H      51.905149999999992     46.756249999999994     47.190369999999994
H      51.659350000000003     44.544849999999997     45.379469999999991
H      50.773449999999997     44.076650000000001     46.629869999999990
H      46.054349999999999     51.125450000000001     42.962469999999989
H      44.691749999999999     50.959750000000000     45.296069999999993
H      43.323949999999996     48.770449999999983     44.296270000000000
H      48.383749999999992     50.940949999999987     42.873369999999987
H      42.134950000000003     50.897949999999994     44.338670000000000
H      43.148749999999993     52.318449999999999     43.608069999999991
H      42.711249999999993     50.513349999999988     42.571769999999994
H      48.712050000000005     43.681550000000001     51.242090300000001
H      47.066350000000000     44.180049999999994     51.914782999999993
H      43.283950000000004     49.108549999999994     47.157869999999996
H      42.154250000000005     49.678149999999988     46.037369999999989
H      43.147449999999992     50.776449999999983     46.484169999999999
H      51.235150000000004     46.849649999999997     44.218669999999996
N      50.234650000000002     46.764649999999989     44.585069999999995
O      53.865049999999997     46.516249999999999     51.059469999999997
O      48.569549999999992     47.950549999999993     53.428230000000006
