18

C      48.610789999999987     47.953034999999993     48.293649999999992
C      47.306889999999996     47.916794999999993     47.909049999999993
C      49.615789999999997     46.840954999999994     48.122049999999994
C      46.565279999999994     46.627654999999997     47.608350000000002
C      49.407389999999992     49.233135000000004     48.649849999999994
C      46.344939999999994     49.115904999999998     48.100249999999996
C      48.941089999999988     45.630814999999998     47.833449999999999
C      47.444389999999999     45.571864999999995     47.928549999999994
C      48.552189999999996     50.371195000000000     48.774749999999997
C      47.093939999999996     50.256195000000005     48.571449999999999
H      50.675190000000001     46.924374999999998     48.023549999999993
H      45.693489999999997     46.397364999999994     47.011949999999999
H      50.451389999999989     49.308824999999999     48.988050000000001
H      45.324809999999999     48.781974999999989     47.543650000000000
H      49.412989999999994     44.546054999999996     47.904849999999996
H      47.085559999999994     44.445504999999997     47.940549999999995
H      49.102789999999999     51.554495000000003     48.983849999999997
H      46.661249999999995     51.315094999999999     48.734549999999999
