6

C      47.181349999999995     47.818199999999990     47.956749999999992
C      48.423149999999993     48.411700000000010     48.340049999999998
H      48.160849999999996     49.310800000000000     48.816350000000000
H      49.452449999999999     47.789800000000000     48.510750000000002
H      46.547550000000001     48.106400000000008     47.183650000000000
H      47.327050000000000     46.689200000000000     47.912750000000003
