18

C      47.751199999999997     48.043749999999989     47.671149999999997
C      48.940100000000001     47.275449999999999     48.248750000000001
C      47.361300000000000     49.311149999999991     48.376850000000005
C      49.456999999999994     47.917749999999991     49.498549999999994
C      46.840699999999998     47.339749999999988     46.733949999999993
C      49.317400000000006     46.120849999999997     47.512950000000004
C      47.890000000000001     50.066449999999996     49.514049999999997
C      48.988799999999998     49.149649999999987     50.051349999999999
C      47.283100000000005     46.269349999999996     45.930049999999994
C      48.559299999999993     45.598049999999994     46.349249999999998
H      46.439599999999999     49.799749999999996     47.899849999999986
H      49.837299999999999     47.324049999999993     50.342749999999995
H      45.846900000000005     47.962949999999999     46.580050000000000
H      50.153099999999995     45.429749999999991     47.789649999999995
H      47.894300000000001     51.239950000000000     49.584649999999996
H      49.504900000000006     49.344149999999992     50.944249999999997
H      46.792400000000001     45.783349999999992     45.055750000000003
H      49.013700000000000     44.760050000000000     45.796650000000000
