18

C      48.668509999999991     47.976999999999990     48.123599999999996
C      47.231819999999999     48.234600000000000     47.724600000000002
C      49.685609999999997     47.580100000000002     47.160400000000003
C      47.129880000000000     48.204000000000008     46.486100000000000
C      48.848010000000002     48.090000000000003     49.637499999999996
C      46.284250000000000     48.381799999999998     48.716900000000003
C      49.381509999999992     47.399100000000004     45.745299999999993
C      48.063049999999997     47.832800000000006     45.463699999999996
C      47.903149999999997     48.151100000000000     50.558100000000003
C      46.562259999999995     48.527000000000001     50.084700000000005
H      50.586910000000003     47.069500000000005     47.744399999999992
H      46.345900000000000     48.437800000000010     45.935399999999994
H      49.584310000000002     47.540500000000009     50.207000000000001
H      45.413089999999997     48.646799999999999     48.273299999999999
H      50.012910000000005     46.864199999999997     44.909100000000002
H      47.846869999999996     47.538200000000003     44.329400000000000
H      48.062529999999995     47.797300000000007     51.670600000000000
H      45.820569999999996     49.135800000000003     50.637399999999992
