35

C      49.118699999999997     48.741349999999983     48.596299999999992
C      50.190400000000004     46.810649999999995     47.501999999999995
C      48.376600000000003     47.616050000000001     48.606400000000008
C      51.150700000000001     46.188949999999991     46.742899999999999
C      48.780000000000001     46.362449999999995     47.906999999999996
C      50.307600000000008     47.251849999999990     46.160299999999999
C      48.664999999999999     49.879249999999999     49.520799999999994
C      50.939899999999994     51.136849999999995     49.916699999999992
C      49.609499999999997     50.804950000000005     50.093800000000002
C      50.303400000000003     48.394649999999999     47.712499999999999
C      47.079900000000002     47.606049999999996     49.341700000000003
C      46.082700000000003     48.702549999999988     49.662999999999997
C      47.386000000000003     49.230350000000001     50.156899999999993
C      48.447500000000005     45.107450000000000     47.379999999999995
C      44.985900000000001     48.831549999999993     50.715599999999995
C      45.626600000000003     49.170449999999988     48.191199999999995
C      45.358300000000000     48.207650000000001     46.890999999999998
H      49.575099999999999     45.945549999999997     44.483199999999997
H      51.345300000000009     45.154349999999994     46.549599999999998
H      49.159700000000001     51.876050000000006     50.467900000000000
H      51.330500000000001     48.652749999999997     48.062100000000001
H      46.651200000000003     46.527349999999998     49.427599999999998
H      47.287700000000001     49.550449999999998     51.273799999999994
H      46.144300000000001     47.522949999999994     46.810099999999998
H      44.807700000000004     47.850149999999999     51.022000000000006
H      45.363199999999999     49.614249999999998     51.516800000000003
H      44.855200000000004     49.984849999999994     48.317300000000003
H      46.773700000000005     49.606049999999996     48.100300000000004
H      44.024000000000001     49.373949999999994     50.418599999999998
H      45.385200000000005     48.840050000000005     45.925500000000000
H      44.588900000000002     47.535550000000001     46.945700000000002
H      48.545400000000001     47.515349999999998     44.985399999999998
N      49.449300000000001     46.903250000000000     44.946199999999997
O      48.050000000000004     44.123949999999994     46.952799999999996
O      51.975999999999999     51.447749999999999     49.584499999999998
