14

C      48.083449999999992     48.997699999999995     49.057449999999989
C      47.513449999999999     49.889099999999999     48.058840000000004
C      47.469749999999998     49.435800000000000     46.766080000000002
C      48.440950000000001     47.367200000000011     47.182739999999995
C      48.390549999999990     47.603700000000003     48.610169999999997
C      49.159949999999995     45.995400000000004     47.088629999999995
C      46.510350000000003     50.479200000000006     47.057500000000005
H      48.391750000000002     49.375900000000001     49.938019999999995
H      48.926549999999999     45.037199999999999     47.644109999999998
H      48.545650000000009     46.758600000000001     49.428240000000002
H      49.112549999999999     45.609900000000010     46.061980000000005
H      45.806550000000001     50.962800000000001     46.335980000000006
H      50.193449999999999     46.056800000000010     47.206230000000005
N      47.840850000000003     48.129199999999997     46.288020000000003
