17

C      47.652049999999996     48.910319999999992     49.955899999999986
C      47.927949999999996     48.280860000000004     46.995899999999999
C      47.366749999999996     47.128100000000003     48.011500000000005
C      48.082250000000002     47.727890000000002     45.663999999999994
C      47.012950000000004     47.757559999999998     49.231500000000004
C      48.612250000000003     49.305199999999999     47.733799999999995
C      47.198849999999993     46.067819999999998     47.127100000000006
C      47.506249999999994     46.326079999999997     45.716400000000000
C      48.598950000000002     49.519790000000000     49.220199999999998
C      48.641549999999995     49.991489999999999     50.608499999999999
H      46.887249999999995     45.021360000000001     47.541800000000002
H      48.777050000000003     48.292050000000003     45.097699999999996
H      46.261150000000001     46.969070000000002     49.805799999999998
H      49.043449999999993     50.074050000000000     47.096600000000002
H      47.672650000000004     45.512880000000003     44.994999999999997
H      49.738849999999999     49.613860000000003     51.005000000000003
H      48.185949999999991     50.978639999999999     50.875300000000003
