15

C      49.338299999999990     46.923049999999989     48.149539999999988
C      46.326200000000000     49.374950000000005     46.617930000000001
C      46.378600000000006     48.930249999999994     48.088729999999998
C      47.409099999999995     48.559350000000002     47.289689999999993
C      47.927300000000002     47.782950000000007     48.426609999999997
C      49.050399999999996     47.477349999999994     49.415179999999992
C      49.920299999999997     47.277849999999994     50.658690000000007
C      46.147099999999995     49.263449999999999     45.240560000000002
H      45.511700000000005     49.130950000000006     48.880260000000007
H      49.154600000000002     47.269050000000000     51.532310000000010
H      50.238500000000002     48.201450000000001     50.536100000000005
H      50.621700000000004     46.495650000000005     50.889430000000004
H      45.378299999999996     49.504349999999995     44.504530000000003
H      46.787499999999994     49.233950000000000     44.467689999999990
O      50.242999999999995     47.326349999999998     47.469449999999995
