5

C      47.703649999999996     47.879299999999994     47.887049999999988
H      47.957750000000004     48.965699999999998     47.430950000000003
H      48.807249999999996     47.665099999999995     48.138150000000003
H      47.582949999999997     47.034300000000002     47.204349999999998
H      47.192750000000004     47.518200000000007     48.795650000000002
