18

C      48.577549999999995     48.521899999999995     48.078554999999994
C      47.543349999999997     47.555500000000002     48.186034999999997
C      49.403350000000003     48.283200000000001     46.803415000000001
C      47.443950000000001     46.450299999999999     47.324885000000002
C      49.087649999999996     49.358199999999997     49.181125000000002
C      46.781050000000000     47.611500000000007     49.395505000000000
C      48.901949999999999     47.527400000000000     45.726894999999999
C      47.951250000000002     46.552900000000001     45.969094999999996
C      48.056349999999995     49.494399999999999     50.216874999999995
C      46.903550000000003     48.656000000000006     50.261865000000000
H      50.209249999999997     49.012500000000003     46.603954999999999
H      46.623649999999998     45.640799999999999     47.626094999999999
H      49.824650000000005     50.087800000000001     49.131405000000008
H      45.790750000000003     47.010700000000000     49.433025000000001
H      49.305650000000000     47.517300000000006     44.857624999999999
H      47.373449999999998     46.057100000000005     45.177495000000000
H      47.931749999999994     50.359200000000001     50.883375000000008
H      46.127850000000002     48.877099999999999     51.142375000000001
