18

C      48.550949999999986     47.750050000000002     48.106099999999991
C      47.394550000000002     48.642550000000000     47.960099999999997
C      48.331550000000000     46.344149999999999     47.599499999999992
C      46.128350000000005     48.117350000000002     47.258099999999999
C      49.770249999999997     47.986350000000002     48.878599999999992
C      47.497449999999994     49.923450000000003     48.558999999999997
C      47.089149999999997     45.846450000000004     47.057000000000002
C      46.074850000000005     46.805549999999997     46.671700000000001
C      49.659349999999996     49.252649999999988     49.534899999999993
C      48.639649999999996     50.213049999999996     49.327599999999990
H      49.035549999999994     45.555050000000008     48.049099999999996
H      45.186749999999996     48.674350000000004     47.092500000000001
H      50.615649999999995     47.345450000000000     48.821699999999993
H      46.776450000000004     50.758650000000003     48.467500000000001
H      47.197250000000004     44.666650000000004     47.026200000000003
H      45.150650000000006     46.491550000000004     46.387799999999999
H      50.849349999999994     49.399149999999992     49.612200000000001
H      48.888349999999996     51.333349999999996     49.443500000000000
