6

C      48.484949999999998     48.575099999999992     47.556099999999986
C      47.843449999999997     47.989400000000003     48.766300000000001
H      47.379150000000003     48.873300000000000     49.331599999999995
H      48.759850000000007     47.615600000000001     49.402600000000007
H      47.038750000000000     47.119399999999999     48.696399999999997
O      48.961250000000000     48.880600000000001     46.597399999999993
