6

C      48.073149999999991     48.620599999999996     48.327299999999994
C      47.938749999999999     47.497000000000000     47.599399999999996
H      48.416250000000005     48.460099999999997     49.464199999999998
H      47.900050000000007     49.506299999999996     47.866700000000002
H      47.583749999999995     47.480599999999995     46.535800000000002
H      47.844849999999994     46.493700000000004     48.093100000000000
