18

C      48.731714999999987     47.831544999999991     48.081149999999994
C      47.624204999999996     48.641145000000002     47.710949999999997
C      49.237574999999993     48.111944999999999     49.443849999999998
C      46.906774999999996     49.385744999999993     48.829949999999997
C      49.487884999999991     46.968344999999999     47.197350000000000
C      46.982794999999996     48.746145000000006     46.425249999999991
C      48.474444999999996     48.679645000000001     50.546949999999995
C      47.144844999999997     49.075944999999997     50.213849999999994
C      48.910074999999992     47.175945000000006     45.845550000000003
C      47.636114999999997     47.836445000000005     45.505949999999999
H      50.099424999999997     47.783144999999998     49.939049999999995
H      45.860394999999997     49.925744999999999     48.697849999999988
H      50.139605000000003     46.074255000000001     47.442149999999998
H      46.084684999999993     49.203144999999999     46.433750000000003
H      48.759624999999986     48.569845000000008     51.529949999999999
H      46.289714999999994     49.155944999999996     51.001949999999994
H      49.350754999999992     46.992845000000003     44.860749999999996
H      47.592924999999994     47.578645000000002     44.470050000000001
