18

C      47.653459999999995     48.702799999999989     47.613999999999997
C      47.761659999999999     47.478799999999993     48.356899999999996
C      46.891259999999996     49.992800000000003     47.823000000000008
C      46.883060000000000     47.474199999999996     49.467100000000002
C      48.601559999999999     48.648099999999999     46.454999999999998
C      48.485059999999997     46.323099999999997     47.853000000000009
C      46.227080000000001     49.762900000000002     49.126700000000000
C      46.104790000000001     48.469200000000001     49.688299999999998
C      49.662360000000000     47.749600000000001     46.129199999999997
C      49.451659999999997     46.429599999999994     46.785100000000000
H      46.614260000000002     50.771299999999997     46.997600000000006
H      47.001860000000001     46.680199999999999     50.074300000000008
H      48.098459999999996     49.232399999999998     45.715299999999999
H      48.269460000000002     45.228700000000003     48.108199999999997
H      45.530960000000000     50.398799999999994     49.483999999999995
H      45.307340000000003     48.365399999999994     50.284700000000001
H      50.692659999999997     47.733099999999993     45.754999999999995
H      49.942560000000000     45.585799999999992     46.124499999999998
