15

C      47.556899999999992     47.607599999999991     49.395599999999988
C      47.517299999999999     49.183900000000001     47.650999999999996
C      46.077900000000000     49.402300000000004     48.114300000000000
C      45.522100000000002     49.198500000000003     49.157899999999998
C      46.267899999999997     48.093400000000010     48.517899999999997
C      48.443800000000003     48.155099999999997     48.378299999999996
C      49.179600000000001     48.331300000000006     49.570599999999985
C      49.764500000000012     48.146599999999999     47.193199999999990
H      47.643099999999990     46.597699999999996     49.801699999999983
H      47.335699999999996     49.109900000000003     46.617199999999997
H      49.320399999999992     49.340300000000006     49.882300000000001
H      49.974299999999992     47.724300000000007     49.196799999999996
H      50.227399999999996     49.074400000000004     47.268299999999996
H      49.484799999999993     47.960600000000007     46.117699999999999
H      50.477899999999998     47.261800000000001     47.160699999999991
