63

C      50.250500000000002     48.549999999999997     42.687617999999986
C      46.071100000000001     49.370400000000004     46.697258000000005
C      49.737600000000000     45.984899999999996     51.810128000000006
C      47.202400000000011     48.578800000000001     46.254217999999995
C      50.059800000000010     45.673800000000000     50.407878000000011
C      45.884900000000002     49.875100000000003     48.095838000000001
C      48.928000000000011     47.154899999999998     52.219427999999994
C      48.036000000000001     48.150300000000001     47.376847999999995
C      49.462100000000007     46.538100000000000     49.424188000000001
C      46.621400000000008     49.621600000000001     50.506608000000000
C      47.140300000000011     48.956000000000003     51.644828000000004
C      46.683600000000013     49.233800000000002     49.126238000000001
C      48.177900000000008     47.990699999999990     51.230428000000003
C      47.643900000000002     48.202900000000000     48.773458000000005
C      48.396600000000007     47.510800000000003     49.895148000000006
C      49.050400000000010     47.115699999999990     46.934808000000004
C      49.739300000000000     46.301999999999992     47.963238000000004
C      45.348500000000001     49.799799999999991     45.440417999999994
C      45.593600000000009     49.567099999999996     43.929218000000006
C      46.864600000000010     48.850700000000003     43.640318000000008
C      47.498500000000007     48.194499999999991     44.847008000000002
C      48.580300000000008     47.333100000000002     44.382728000000000
C      49.406400000000005     46.821899999999999     45.497538000000006
C      50.412100000000009     45.062600000000003     52.886927999999997
C      51.336100000000002     44.018900000000002     52.363628000000006
C      51.820300000000003     43.932599999999994     51.056027999999998
C      51.024900000000002     44.565899999999999     49.927707999999996
C      51.200999999999993     44.405500000000004     48.485848000000004
C      50.797899999999998     45.436499999999995     47.501857999999999
C      50.520000000000010     45.962000000000003     45.083818000000008
C      51.262400000000000     44.969999999999999     46.058378000000005
C      45.088800000000006     51.117899999999992     48.358977999999993
C      44.276100000000000     51.438699999999997     47.210588000000001
C      44.376000000000005     50.892099999999999     45.820148000000003
C      47.191900000000004     48.665399999999991     42.171447999999998
C      44.430199999999999     51.694499999999991     49.657917999999995
C      49.142600000000002     47.451999999999998     42.947578000000007
C      48.329800000000006     47.504599999999996     53.583228000000005
H      50.388800000000003     48.776100000000000     41.567971999999997
H      51.238800000000012     48.042099999999991     42.804788000000002
H      45.834900000000005     50.371499999999997     50.942627999999999
H      46.936599999999999     49.324100000000001     52.664128000000005
H      44.587200000000010     49.778799999999990     43.140698000000000
H      50.202000000000012     45.178100000000001     53.849227999999997
H      51.858499999999992     43.105400000000003     52.712028000000004
H      52.673999999999992     43.502700000000004     50.654628000000002
H      52.174199999999999     44.075699999999998     48.275497999999999
H      50.290000000000006     45.328999999999994     44.140547999999995
H      51.418199999999999     46.542299999999997     44.580048000000005
H      51.156600000000012     43.975300000000004     45.746448000000001
H      52.404299999999992     45.212299999999999     45.643748000000002
H      44.292700000000011     52.894599999999997     49.787177999999997
H      43.326000000000008     52.189499999999995     47.213488000000012
H      44.547499999999999     51.569699999999997     44.848287999999997
H      46.371100000000013     48.912499999999994     41.587106000000006
H      44.750700000000009     51.409300000000002     50.730128000000008
H      43.516200000000012     51.016800000000003     49.598647999999997
H      49.901700000000005     46.646999999999991     42.617388000000005
H      50.204100000000011     49.510800000000003     43.395837999999998
H      48.941100000000006     48.212999999999994     54.136228000000003
H      48.311599999999999     46.829300000000003     54.432028000000003
H      47.046400000000006     47.811799999999991     53.712627999999995
O      48.036700000000010     47.850999999999999     41.774867999999998
