18

C      48.736349999999995     48.153950000000002     48.184199999999997
C      47.555849999999992     47.649150000000006     47.477200000000003
C      49.652050000000003     47.379050000000007     48.972800000000007
C      47.221549999999993     46.188150000000007     47.849000000000004
C      49.009450000000001     49.646050000000017     47.964200000000005
C      46.602649999999997     48.537850000000006     46.706800000000001
C      49.140050000000002     46.095350000000010     49.543500000000009
C      48.014049999999997     45.526750000000007     48.798299999999998
C      48.194050000000004     50.501649999999998     47.163300000000007
C      46.948549999999997     49.942650000000015     46.601100000000002
H      50.369150000000005     47.928950000000007     49.438700000000011
H      46.626450000000006     45.382450000000006     47.257100000000008
H      49.689350000000005     50.174149999999997     48.695500000000010
H      45.630849999999995     48.392949999999999     46.368000000000002
H      49.678950000000000     45.493650000000002     50.127499999999998
H      48.067650000000000     44.347650000000002     49.052700000000002
H      48.477149999999995     51.652349999999998     47.191200000000009
H      46.418549999999996     50.526250000000005     45.872500000000002
