18

C      47.174349999999990     47.532349999999994     47.784399999999998
C      48.621150000000000     47.619749999999996     47.709099999999999
C      46.820349999999998     47.628549999999990     49.279900000000005
C      49.460150000000006     47.540549999999996     48.894300000000001
C      46.369050000000001     47.936749999999989     46.666700000000006
C      49.509749999999997     48.111549999999994     46.539800000000000
C      47.460550000000005     47.136449999999996     50.339900000000000
C      48.955750000000002     47.193749999999994     50.190400000000004
C      47.185350000000000     48.566449999999989     45.675400000000003
C      48.565449999999991     48.679449999999989     45.635500000000000
H      45.798249999999996     47.948649999999986     49.498400000000004
H      50.479049999999994     47.647949999999994     48.552599999999998
H      45.340049999999998     47.581349999999986     46.579700000000003
H      50.659950000000002     47.866950000000003     46.395400000000002
H      47.031849999999999     46.725650000000002     51.365400000000001
H      49.625450000000001     47.027050000000003     51.128000000000000
H      46.794449999999998     49.014349999999993     44.634599999999999
H      49.088950000000004     49.274349999999998     44.739100000000001
