5

C      48.109949999999991     48.224349999999994     47.646549999999991
H      48.083750000000002     48.568150000000003     46.528050000000000
H      48.108649999999997     47.206850000000003     47.855849999999997
H      48.253050000000002     48.446050000000000     49.471950000000000
O      47.746949999999998     48.793149999999997     48.670250000000003
