18

C      47.692499999999988     47.655999999999985     47.875299999999996
C      48.612899999999996     48.806600000000003     48.210600000000007
C      47.345100000000002     46.290599999999998     48.288000000000004
C      49.233000000000004     48.381900000000002     49.512200000000000
C      46.938699999999997     47.718999999999994     46.662100000000002
C      49.058999999999997     49.716899999999995     47.184600000000003
C      47.781700000000001     46.144999999999996     49.684100000000001
C      48.592500000000001     47.278899999999993     50.126799999999996
C      46.962800000000001     48.807299999999998     45.840100000000000
C      47.996499999999997     49.829799999999992     46.242700000000006
H      46.945399999999999     45.504899999999992     47.633299999999998
H      49.928200000000004     49.002899999999997     50.059100000000001
H      46.323099999999997     46.925600000000003     46.226000000000006
H      49.778700000000001     50.633699999999990     47.453499999999998
H      47.597799999999999     45.328900000000004     50.428599999999996
H      48.901499999999999     47.377200000000002     51.131599999999999
H      46.071799999999996     48.979100000000003     44.868400000000001
H      47.917699999999996     50.671099999999996     45.663900000000005
