18

C      48.465849999999989     48.508149999999993     48.408549999999991
C      47.363149999999997     48.050550000000001     47.505939999999995
C      48.525649999999999     48.307249999999996     49.861040000000003
C      46.578049999999998     46.979450000000000     48.148499999999999
C      49.436249999999994     49.473450000000000     47.887789999999995
C      47.100049999999996     48.569749999999999     46.066729999999993
C      47.624849999999995     47.247850000000000     50.328540000000004
C      46.946849999999998     46.406050000000008     49.410240000000002
C      49.408049999999996     49.639449999999997     46.442899999999995
C      48.272250000000000     49.313150000000007     45.571579999999997
H      49.526149999999994     48.378150000000005     50.424239999999998
H      45.785149999999994     46.511449999999996     47.647670000000005
H      50.214850000000006     49.770150000000001     48.393259999999998
H      46.703149999999994     47.944749999999999     45.303839999999994
H      47.549749999999996     46.853149999999999     51.446240000000003
H      46.437949999999994     45.539450000000002     49.649839999999998
H      50.172649999999997     50.460549999999998     46.127049999999997
H      48.607650000000000     49.465550000000007     44.553759999999997
