18

C      47.246949999999991     48.714349999999996     48.366899999999994
C      48.053849999999997     47.986550000000001     47.201300000000003
C      45.898849999999996     48.449150000000003     48.941499999999998
C      47.595249999999993     46.595950000000002     47.107800000000005
C      47.875549999999997     49.899650000000001     49.027900000000002
C      49.399850000000001     48.204149999999998     46.774000000000001
C      45.752749999999999     47.052550000000004     48.818800000000010
C      46.521549999999998     46.156050000000000     47.897300000000001
C      49.290549999999996     50.056350000000002     48.493299999999998
C      49.985549999999996     49.324150000000010     47.500900000000001
H      45.409149999999997     49.090550000000000     49.753500000000003
H      48.142949999999999     45.892050000000005     46.635500000000000
H      47.354349999999997     49.941650000000003     49.900300000000001
H      49.917249999999996     47.512149999999998     46.099699999999999
H      44.980550000000001     46.706650000000003     49.496700000000004
H      46.291249999999998     45.025150000000004     47.622599999999998
H      49.910150000000002     50.974849999999996     48.967100000000002
H      51.019449999999999     49.526249999999997     47.298200000000001
