18

C      47.454873499999991     47.914514999999987     47.656181999999980
C      48.586863500000007     47.634315000000001     48.603914999999986
C      47.763613500000005     48.032125000000008     46.248025000000013
C      49.801003500000007     47.747824999999999     47.785058999999990
C      46.125273500000006     48.347584999999995     47.952272999999977
C      48.098583500000004     47.504294999999999     50.000904999999989
C      48.983223500000008     47.975994999999998     45.478324999999998
C      50.126843500000007     47.936525000000003     46.434724999999986
C      45.746383500000007     48.141684999999995     49.312174999999982
C      46.728363500000000     47.727795000000000     50.356434999999983
H      46.832803499999997     48.291114999999991     45.792324999999998
H      50.917903500000008     47.460205000000002     48.199468999999993
H      45.387056500000000     48.539794999999998     47.058224999999986
H      48.911693499999998     47.507925000000000     50.829244999999986
H      49.141873500000003     48.008414999999999     44.470625000000013
H      51.204513500000004     48.003135000000000     45.992124999999980
H      44.795486499999996     48.531714999999998     49.678964999999977
H      46.901033499999997     47.782955000000001     51.529374999999987
