46

C      49.363749999999996     52.058149999999998     46.596349999999987
C      49.555349999999997     52.077750000000002     48.097050000000003
C      46.572250000000004     45.394150000000003     50.961549999999995
C      48.990249999999996     50.837949999999999     44.390750000000004
C      46.596550000000001     44.272150000000003     49.799649999999993
C      46.685650000000003     46.733750000000001     50.791750000000000
C      48.925450000000005     50.844150000000006     48.401549999999993
C      47.273149999999994     43.996850000000002     47.215349999999994
C      47.636549999999993     44.989950000000000     46.359850000000002
C      48.825250000000004     47.890650000000001     45.132849999999998
C      47.440149999999996     48.534550000000003     48.820050000000002
C      46.946949999999994     44.783149999999999     48.562949999999994
C      48.885650000000005     50.842549999999996     45.964449999999992
C      46.993350000000000     47.220950000000002     49.368050000000004
C      48.468650000000004     50.139649999999996     47.152549999999998
C      47.750049999999995     46.326450000000001     46.922949999999993
C      48.173849999999995     48.749950000000005     47.500949999999996
C      48.295449999999995     47.606749999999998     46.529750000000000
C      47.241549999999997     46.277650000000001     48.305649999999993
C      48.242449999999998     50.735750000000003     49.655650000000001
C      47.362050000000004     49.559649999999998     49.833149999999996
C      46.444650000000003     49.395249999999997     51.109249999999996
C      46.223449999999993     48.057750000000006     51.532149999999994
C      49.610049999999994     53.181149999999995     49.102250000000005
C      48.954450000000001     53.193949999999994     50.423849999999995
C      48.249149999999993     51.882650000000005     50.466749999999998
C      46.098549999999996     44.954949999999997     52.255050000000004
C      45.892149999999994     42.996150000000000     49.604750000000003
C      49.073050000000002     46.779750000000000     44.082950000000004
C      48.132050000000000     47.781849999999999     43.495950000000001
H      49.790849999999999     52.837750000000007     45.825949999999999
H      47.587049999999998     42.993850000000002     47.137750000000004
H      48.232350000000004     44.695250000000001     45.377549999999992
H      46.235250000000001     50.220250000000000     51.935549999999999
H      45.897449999999999     47.950150000000001     52.504849999999998
H      50.455249999999999     53.871050000000004     48.911149999999999
H      48.837949999999999     54.061749999999996     51.047149999999995
H      47.624450000000003     51.896049999999995     51.418749999999996
H      49.378350000000005     48.912450000000000     45.394050000000000
H      48.708149999999996     45.823349999999998     44.603749999999998
H      49.639249999999997     46.486249999999998     43.213150000000006
H      47.113449999999993     47.416950000000000     43.385449999999999
H      48.614650000000005     48.369449999999993     42.749649999999995
O      45.744449999999993     44.529249999999998     53.250350000000005
O      45.544750000000001     41.938250000000004     49.290050000000001
O      48.891849999999998     50.615050000000004     43.294949999999993
