75

C      46.634599999999999     45.931899999999985     49.309549999999994
C      46.544600000000003     47.239400000000003     48.640250000000002
C      49.872900000000001     45.808700000000002     48.704550000000005
C      49.564700000000002     46.378500000000003     47.201350000000005
C      46.973399999999998     44.659599999999998     48.721250000000005
C      48.317700000000002     47.044499999999999     47.000450000000001
C      49.429500000000004     44.630499999999998     49.578850000000003
C      48.647800000000004     45.491799999999998     46.574950000000001
C      48.329099999999997     44.000799999999998     48.883350000000000
C      47.799199999999999     44.447599999999994     47.551950000000005
C      45.534999999999997     46.015100000000004     50.404250000000005
C      44.947299999999998     47.173500000000004     51.044450000000012
C      45.213000000000008     48.636400000000009     50.543250000000000
C      46.195200000000000     48.457599999999999     49.540550000000010
C      51.069699999999997     46.518000000000001     49.020050000000005
C      51.384399999999999     47.511400000000009     48.181550000000001
C      50.638199999999998     48.419799999999995     45.604750000000003
C      50.651799999999994     47.410000000000011     46.927350000000004
C      44.976299999999995     44.858199999999997     51.149950000000004
C      44.249899999999997     44.897800000000004     52.410850000000011
C      43.583700000000007     46.135900000000007     52.889650000000003
C      44.008700000000005     47.318100000000001     52.188350000000000
C      45.651600000000002     43.791100000000000     48.832250000000002
C      45.428399999999996     43.491900000000001     50.471850000000003
C      47.271400000000000     47.853200000000001     47.603550000000006
C      47.584000000000003     49.462299999999999     47.856950000000005
C      46.642200000000003     49.910200000000003     49.002350000000000
C      50.478999999999999     44.201300000000003     50.462050000000005
C      51.843500000000006     44.596400000000003     50.166250000000005
C      52.064300000000003     46.203800000000001     49.839550000000003
C      48.610699999999994     43.934799999999996     44.518550000000005
C      44.245999999999995     48.702500000000001     52.714950000000002
C      47.880300000000005     50.022400000000005     43.664050000000003
C      48.106899999999996     51.307900000000004     44.163150000000002
C      48.898300000000006     49.167000000000002     44.122150000000005
C      49.065700000000007     51.906599999999997     45.030550000000005
C      46.703100000000006     49.904399999999995     42.887950000000004
C      47.242800000000003     52.515199999999993     44.077650000000006
C      49.965800000000002     49.519499999999994     45.039050000000003
C      49.991100000000003     50.930399999999992     45.540450000000000
C      45.902500000000003     51.050500000000000     42.480650000000004
C      46.206400000000002     52.352099999999993     43.018450000000001
H      44.724199999999996     49.454700000000003     50.805250000000001
H      52.332999999999998     48.037399999999991     48.322650000000003
H      44.030299999999997     43.952299999999994     52.849650000000004
H      43.050200000000004     46.252600000000001     53.836449999999999
H      45.734600000000000     42.873499999999993     48.402750000000005
H      44.737099999999998     44.324799999999996     48.438950000000006
H      44.865899999999996     42.623499999999993     50.804749999999999
H      46.528000000000006     43.473199999999991     50.493250000000003
H      46.476399999999998     48.104600000000005     46.850149999999999
H      47.195999999999998     50.197699999999998     47.004250000000006
H      48.513800000000003     49.902000000000001     47.856650000000002
H      47.311000000000007     50.468900000000005     49.663750000000007
H      45.784400000000005     50.245800000000003     48.592449999999999
H      50.077200000000005     44.924700000000001     51.635750000000002
H      50.580200000000005     43.097700000000003     50.461449999999999
H      51.840500000000006     44.295900000000003     49.019050000000000
H      52.868899999999996     44.007800000000003     50.719150000000006
H      52.949799999999996     45.981700000000004     49.181750000000001
H      52.271799999999999     46.867800000000003     50.624450000000010
H      48.997299999999996     43.301500000000004     43.582250000000002
H      47.552400000000006     43.934100000000001     44.772449999999999
H      44.322400000000002     49.631399999999999     52.159750000000003
H      44.058800000000005     49.168999999999997     53.737849999999995
H      50.454999999999998     44.773899999999998     45.324350000000003
H      48.923000000000002     48.206299999999999     43.633450000000003
H      48.939999999999998     52.931500000000000     45.383350000000000
H      46.248300000000000     49.059699999999992     42.529350000000001
H      47.544200000000004     53.376500000000007     44.728750000000005
H      50.863200000000006     51.246700000000004     46.097550000000005
H      44.775199999999998     51.283799999999999     42.163550000000001
H      45.668400000000005     53.144000000000005     42.694250000000004
N      49.374499999999998     44.747199999999992     45.231450000000002
O      51.372900000000001     48.484200000000001     44.606150000000000
