18

C      48.246929999999978     48.070799999999991     47.223111999999986
C      47.740059999999986     48.416599999999988     48.650812000000002
C      47.185909999999993     47.317200000000000     46.496611999999999
C      46.335330999999996     48.463899999999995     48.925012000000009
C      49.726039999999998     48.081800000000001     46.975012000000007
C      48.725880000000004     49.085999999999999     49.461712000000006
C      45.822847199999984     47.119099999999989     46.844012000000006
C      45.417619999999999     47.826299999999989     48.017111999999997
C      50.520799999999994     48.382399999999990     48.109512000000009
C      50.160859999999985     49.314499999999995     49.173212000000007
H      47.473079999999996     46.899599999999992     45.510711999999998
H      46.038218999999998     49.106299999999990     49.817712000000000
H      50.434100000000001     47.958299999999994     46.249611999999999
H      48.227369999999993     49.404299999999992     50.489288000000002
H      45.130519999999990     46.396000000000001     46.444811999999999
H      44.303719999999998     47.936599999999999     48.272912000000005
H      51.696280000000002     48.016199999999998     48.097211999999999
H      50.947260000000000     49.603999999999999     49.927912000000006
