47

C      47.189299999999989     47.486099999999993     47.822099999999992
C      47.342499999999994     48.832199999999993     46.999700000000004
C      51.391799999999996     49.228299999999997     49.753000000000000
C      48.256699999999988     47.163100000000000     48.697700000000012
C      48.620699999999999     49.655899999999995     47.107600000000005
C      50.591599999999993     47.932600000000001     49.801500000000004
C      50.887899999999995     50.179399999999994     48.586300000000008
C      49.251199999999997     48.265000000000001     48.974700000000013
C      49.644399999999997     49.320299999999996     48.068500000000014
C      45.980799999999995     46.661000000000001     47.263400000000004
C      45.527299999999997     47.546299999999995     46.240099999999998
C      46.247299999999996     48.905600000000000     46.140200000000007
C      45.436599999999999     45.344500000000004     47.653300000000002
C      43.656199999999998     46.027099999999997     46.039500000000004
C      44.280499999999996     45.053800000000003     46.914800000000000
C      44.168699999999994     47.377699999999997     45.768500000000003
C      45.766099999999994     49.893999999999998     45.163000000000011
C      50.765499999999996     50.593399999999995     50.165199999999999
C      50.521599999999999     51.528900000000000     47.816200000000009
C      49.856400000000001     47.199800000000003     50.985400000000013
C      52.886299999999984     49.156600000000005     49.927800000000005
C      43.190199999999997     43.986300000000000     47.070100000000011
C      48.447299999999998     51.083000000000006     46.596699999999998
C      49.863799999999998     51.446800000000003     46.357399999999998
H      48.303199999999997     46.452099999999994     49.350400000000008
H      45.641999999999996     44.990000000000002     48.619900000000001
H      42.778999999999996     45.591699999999996     45.512600000000006
H      43.491299999999995     48.068500000000000     45.375900000000001
H      51.284299999999995     47.409900000000000     48.895300000000006
H      51.567999999999998     51.290100000000002     50.507700000000000
H      49.717399999999998     50.677799999999998     50.366300000000010
H      49.919199999999996     52.146799999999992     48.456000000000003
H      51.441799999999994     52.137000000000000     47.575000000000003
H      50.611099999999993     46.561599999999999     51.614699999999999
H      49.376499999999986     46.301600000000001     50.528700000000001
H      49.053999999999995     47.816899999999997     51.319600000000008
H      53.734600000000000     49.497799999999998     49.268799999999999
H      53.233599999999996     49.623299999999993     50.794300000000007
H      53.010199999999998     47.932800000000007     50.075500000000005
H      42.265400000000000     44.513200000000005     46.784500000000008
H      43.323899999999995     43.623399999999997     48.174199999999999
H      48.104099999999995     51.160599999999995     45.598500000000001
H      47.930599999999991     51.845099999999995     47.334200000000010
H      50.060999999999986     52.455300000000001     45.827300000000008
H      50.631999999999998     50.611700000000006     45.600800000000007
H      43.518099999999997     43.544699999999999     46.152600000000007
O      45.433299999999996     50.581899999999997     44.385300000000001
