18

C      47.724899999999998     47.504034999999995     47.192169999999997
C      47.992500000000007     48.569135000000003     48.252486000000005
C      46.435400000000001     46.989035000000001     47.312569999999994
C      47.073200000000007     49.032697000000006     49.092060000000004
C      48.961500000000001     47.358235000000008     46.321669999999997
C      49.372200000000007     48.946953800000017     48.575351999999995
C      45.503900000000002     47.260835000000000     48.464415000000002
C      45.844200000000001     48.256135000000000     49.417800000000000
C      50.202200000000005     48.000235000000004     46.395370000000000
C      50.448000000000008     48.713535000000007     47.671469999999999
H      46.129900000000006     46.068534999999997     46.653769999999994
H      47.361200000000004     49.931465000000003     49.821830000000006
H      48.668200000000006     46.698135000000008     45.508870000000002
H      49.477300000000007     49.593273000000011     49.476690000000005
H      44.573700000000002     46.749035000000006     48.567689000000001
H      45.574700000000007     48.461735000000004     50.491129999999998
H      50.976900000000001     47.713234999999997     45.780770000000004
H      51.426299999999998     48.912935000000004     47.863231500000012
