18

C      48.745299999999993     48.089554999999990     47.801349999999992
C      47.238799999999998     47.995325000000001     47.723749999999995
C      49.622300000000010     48.994194999999998     47.047950000000000
C      46.507700000000000     48.627784999999996     46.544749999999993
C      49.233200000000011     47.212964999999997     48.931550000000001
C      46.414200000000008     47.318024999999999     48.730649999999997
C      48.662700000000001     49.644674999999999     46.191149999999993
C      47.243900000000011     49.531275000000001     45.879450000000006
C      48.509700000000009     46.518214999999998     49.921350000000004
C      47.052000000000007     46.710495000000002     49.941649999999996
H      50.638199999999998     49.362095000000004     47.356750000000005
H      45.392499999999998     48.764805000000003     46.322149999999993
H      50.310800000000000     47.090015000000001     49.070149999999998
H      45.361800000000002     47.198414999999997     48.484849999999994
H      48.842600000000004     50.205575000000003     45.364649999999997
H      46.785700000000006     50.054475000000004     45.076650000000001
H      49.026000000000010     45.794424999999997     50.759249999999994
H      46.274200000000008     46.503354999999999     50.923349999999999
