18

C      47.462599999999988     47.991749999999989     48.480649999999990
C      48.349199999999996     48.315849999999998     47.320450000000001
C      47.169199999999989     48.689749999999997     49.744050000000001
C      48.836500000000001     49.704349999999998     47.462850000000003
C      46.886799999999994     46.735549999999996     48.358550000000001
C      48.641700000000000     47.564949999999996     46.196050000000000
C      47.564200000000000     50.063649999999996     49.820750000000004
C      48.459699999999998     50.426049999999996     48.669749999999993
C      47.155299999999997     45.767649999999996     47.313749999999999
C      47.873799999999989     46.373449999999998     46.150750000000002
H      46.753299999999996     48.268349999999998     50.802250000000001
H      49.853200000000001     49.876750000000001     46.928150000000002
H      46.146799999999999     46.526750000000000     49.143150000000006
H      49.118899999999996     48.147449999999992     45.434350000000002
H      47.455999999999989     50.557550000000006     50.793949999999995
H      49.485599999999991     50.947950000000006     48.838450000000002
H      46.475899999999996     45.052049999999994     47.142949999999999
H      47.661999999999992     45.999150000000000     45.197749999999999
