6

C      48.267149999999994     47.462849999999989     47.999099999999991
C      48.061650000000000     48.802250000000001     47.914599999999993
H      48.155650000000001     46.815950000000001     48.964600000000004
H      47.899450000000002     46.689549999999997     47.153599999999997
H      48.276750000000000     49.290649999999999     48.810500000000005
H      47.723250000000000     49.310450000000003     47.035399999999996
