18

C      47.355255000000000     47.497599999999991     48.380559999999988
C      48.201155000000000     48.780400000000014     48.176429999999996
C      48.001255000000000     46.226799999999997     48.765660000000004
C      49.639593000000005     48.445800000000006     48.179299999999998
C      45.966354999999993     47.709900000000005     47.886679999999998
C      46.349854999999991     50.048600000000008     47.011599999999994
C      49.432654999999997     46.106800000000007     48.951989999999988
C      50.314504999999997     47.247799999999998     48.697349999999993
C      45.442054999999996     48.990600000000001     47.677000000000000
C      47.785454999999999     49.872900000000001     47.303399999999996
H      47.288955000000001     45.307100000000005     48.778889999999997
H      50.002037999999999     49.409600000000012     47.681829999999998
H      45.394554999999997     46.864199999999997     47.805279999999996
H      46.335654999999988     50.871700000000004     46.537360000000000
H      49.755438000000012     45.128299999999996     49.462640000000000
H      51.286345000000011     47.334200000000010     48.899659999999990
H      44.713654999999989     49.770099999999999     47.731899999999996
H      48.418754999999990     50.282200000000003     46.582139999999995
