35

C      51.278749999999988     48.114199999999997     46.872849999999993
C      51.861450000000005     46.911499999999997     46.621449999999996
C      49.206950000000006     49.308100000000003     47.068350000000009
C      48.456950000000006     50.711300000000001     47.161850000000001
C      45.007450000000006     48.203099999999999     49.386650000000003
C      48.548850000000002     48.237999999999992     48.016149999999996
C      46.251149999999996     47.437899999999992     49.060850000000002
C      47.082850000000008     48.391799999999996     48.171850000000006
C      46.364350000000002     49.568099999999994     47.892550000000000
C      49.055850000000007     46.954900000000002     48.392550000000000
C      48.396349999999998     45.803800000000003     49.101450000000000
C      47.058549999999997     46.562999999999995     49.921149999999997
C      44.668250000000000     45.280499999999996     48.953050000000005
C      45.016649999999998     46.797400000000003     48.457949999999997
C      48.777050000000003     49.864899999999999     45.699650000000005
H      46.253150000000005     51.677000000000000     47.214349999999996
H      52.268950000000004     47.170999999999999     45.584850000000003
H      52.246250000000003     46.064799999999998     47.144750000000002
H      48.926450000000003     51.611499999999999     47.213450000000009
H      44.752650000000003     48.102200000000003     50.603250000000003
H      49.323149999999998     45.292399999999994     49.586849999999998
H      50.193349999999995     46.820500000000003     47.863349999999997
H      48.179850000000002     44.867600000000003     48.492249999999999
H      47.314850000000007     46.892800000000001     51.020150000000001
H      46.641649999999998     45.539700000000003     50.302450000000007
H      45.119850000000000     44.323000000000000     48.562049999999999
H      43.731049999999996     44.932499999999997     48.788950000000000
H      44.995750000000001     46.918799999999997     47.407449999999997
H      45.035550000000001     45.120699999999992     50.129050000000007
H      49.430450000000008     50.603900000000003     44.979849999999999
H      47.776250000000005     49.782299999999999     45.242450000000005
H      44.659750000000003     50.629200000000004     48.872650000000007
N      46.962350000000001     50.828200000000002     47.409350000000003
N      45.101650000000006     49.690499999999993     48.621650000000002
O      50.758150000000001     49.201500000000003     47.072350000000000
