18

C      47.402149999999999     48.378699999999995     47.204049999999981
C      48.300350000000009     47.751200000000004     48.193549999999995
C      46.016950000000008     48.526000000000003     47.550149999999995
C      47.815150000000003     47.217700000000001     49.500250000000001
C      47.827250000000006     48.792899999999996     46.098549999999996
C      49.728549999999998     47.996699999999997     47.941949999999999
C      45.612850000000009     48.585299999999997     48.951949999999989
C      46.626050000000006     47.990100000000005     49.931750000000001
C      49.379950000000008     48.954199999999993     45.813749999999992
C      50.346050000000005     48.427900000000001     46.730149999999988
H      45.221850000000003     48.516600000000004     46.870950000000001
H      48.555650000000000     46.580700000000000     50.070249999999994
H      47.063950000000006     49.419300000000000     45.721550000000001
H      50.174850000000006     47.406500000000001     48.771349999999991
H      44.460149999999999     48.793900000000001     48.942349999999998
H      46.601450000000000     47.859599999999993     51.048549999999999
H      49.666950000000000     49.309499999999993     44.951450000000001
H      51.539850000000001     48.439399999999999     45.982749999999989
