18

C      48.527049999999996     48.274164999999996     47.587399999999988
C      48.206050000000005     47.500365000000002     48.690400000000004
C      48.386150000000001     47.444884999999999     46.349200000000003
C      47.947650000000010     46.162015000000011     48.637300000000003
C      48.453450000000004     49.646995000000004     47.617700000000006
C      47.946550000000002     48.239604999999997     50.014000000000003
C      48.279350000000008     46.044165000000007     46.183399999999999
C      48.029949999999999     45.356655000000003     47.371400000000001
C      48.509349999999998     50.436355000000006     48.881599999999999
C      48.242450000000005     49.594095000000010     50.033999999999999
H      48.326650000000001     48.180935000000005     45.576699999999995
H      47.609549999999999     45.455435000000008     49.523599999999995
H      48.471150000000009     50.389955000000000     46.753800000000005
H      47.810950000000005     47.774635000000004     50.901599999999995
H      48.192250000000001     45.864505000000008     45.098400000000005
H      47.472950000000004     44.355694999999997     47.690700000000000
H      48.448750000000004     51.644305000000003     48.940500000000007
H      47.930149999999998     50.280415000000005     50.879600000000003
