18

C      47.660799999999995     47.601849999999999     48.310649999999995
C      48.811700000000009     48.101349999999996     47.752749999999992
C      46.558500000000002     46.878349999999998     47.615949999999998
C      49.158200000000001     47.454250000000002     46.468850000000003
C      47.246600000000008     48.268850000000000     49.609650000000002
C      49.475000000000001     49.105849999999990     48.559150000000002
C      47.205000000000005     46.261349999999993     46.472849999999994
C      48.280999999999999     46.634450000000001     45.664949999999990
C      47.920999999999999     49.233149999999995     50.481650000000002
C      49.032299999999999     49.790850000000006     49.791049999999998
H      45.680500000000002     46.628649999999993     48.091250000000002
H      50.101700000000001     47.750550000000004     46.264150000000001
H      46.246600000000008     48.043449999999993     50.055049999999994
H      50.319499999999998     49.598849999999999     48.152749999999997
H      46.597900000000003     45.431250000000006     46.077150000000003
H      48.414999999999999     46.090850000000003     44.657449999999997
H      47.426700000000004     49.645149999999987     51.342550000000003
H      49.669000000000004     50.568749999999994     50.227049999999991
