18

C      45.764864999999993     47.301074999999990     48.095508999999993
C      46.618385000000004     47.394464999999997     49.144719999999992
C      50.435875000000003     47.939484999999998     47.923167999999990
C      48.872444999999999     48.446635000000001     48.170192999999983
C      48.150234999999995     48.763194999999996     46.705609999999993
C      48.260765000000006     47.250284999999998     49.187349999999995
H      47.814635000000010     49.602755000000002     46.051509999999993
H      44.716825000000000     47.489194999999995     48.026162999999997
H      45.969335000000001     47.415064999999998     47.014310000000009
H      46.212014999999994     47.555844999999991     49.959069999999997
H      51.283175000000000     48.745375000000003     47.790680999999992
H      50.708075000000001     47.636114999999997     48.963269999999994
H      48.952005000000000     49.236804999999997     48.815129999999982
H      50.405675000000002     46.897864999999996     47.317610000000016
H      47.575035000000000     47.896385000000009     46.606110000000015
H      48.766725000000008     48.078245000000010     45.694410000000019
H      48.267395000000008     47.758134999999996     50.305589999999981
H      48.800725000000000     46.397244999999998     48.933979999999991
