5

C      47.340649999999997     48.343549999999993     48.172379999999990
C      48.037750000000003     48.193650000000005     47.046859999999995
H      48.088650000000001     47.115150000000000     46.849509999999995
H      48.911749999999998     48.884850000000000     46.660519999999998
O      47.088250000000002     48.498550000000002     49.339480000000002
