25

C      48.332599999999999     48.409899999999993     50.289099999999991
C      46.786799999999999     48.969800000000006     49.899699999999996
C      48.780900000000003     48.916900000000012     47.945700000000002
C      47.808099999999996     47.897400000000005     47.465800000000002
C      48.991100000000003     50.156700000000001     47.284800000000004
C      46.736999999999995     48.525500000000008     46.512299999999996
C      49.242300000000000     48.020099999999999     49.144199999999998
C      47.583500000000001     46.499800000000008     47.731800000000007
C      48.010999999999996     50.323599999999999     46.139300000000006
C      46.833900000000000     49.594800000000006     45.611599999999996
C      49.394499999999994     46.567999999999998     49.214799999999997
C      48.505799999999994     45.793700000000001     48.476299999999995
H      47.769499999999994     47.486199999999997     50.600499999999997
H      48.644400000000005     49.295000000000002     50.931799999999996
H      46.457200000000000     48.755200000000002     48.980599999999995
H      46.017099999999999     48.816100000000006     50.696799999999996
H      46.916200000000003     50.122399999999999     49.897800000000004
H      49.390699999999995     51.278099999999995     47.538700000000006
H      45.717299999999994     47.893100000000004     46.471299999999999
H      50.279300000000006     48.400500000000008     49.321799999999996
H      46.909099999999995     45.997600000000006     47.195700000000002
H      48.071200000000005     51.201600000000013     45.387500000000003
H      45.823099999999997     49.859899999999996     45.068200000000004
H      50.282700000000006     46.327300000000008     50.077100000000002
H      48.439200000000000     44.721900000000005     48.525199999999998
