18

C      47.387049999999988     48.792399999999994     47.766099999999987
C      47.859849999999987     47.489300000000000     48.368700000000004
C      47.387549999999997     49.950200000000002     48.418899999999994
C      48.614249999999991     47.506600000000006     49.600899999999996
C      47.025149999999996     48.597000000000001     46.447499999999991
C      47.867549999999987     46.130400000000002     47.747399999999999
C      47.851149999999997     49.824399999999997     49.813099999999991
C      48.555249999999994     48.665800000000004     50.460399999999993
C      47.396349999999991     47.325200000000002     45.718199999999996
C      47.564050000000002     46.040599999999998     46.394099999999995
H      46.937149999999995     50.853200000000001     47.872199999999992
H      49.062850000000005     46.498900000000006     50.166699999999992
H      47.026249999999997     49.287099999999995     45.661599999999993
H      48.213549999999991     45.146799999999999     48.240300000000005
H      47.778050000000000     50.652700000000003     50.409199999999998
H      48.865249999999996     48.827100000000002     51.454999999999998
H      47.412550000000003     47.682900000000004     44.545000000000002
H      47.591549999999991     45.174800000000005     45.685900000000004
