18

C      48.725649999999987     46.906549999999996     47.970584999999971
C      47.779049999999998     47.532550000000001     47.005245999999978
C      48.434650000000005     45.990850000000009     48.961884999999988
C      46.484750000000005     46.995249999999999     46.673806999999982
C      49.856150000000000     47.585949999999997     48.490634999999990
C      48.255049999999997     48.785749999999993     46.850191999999979
C      47.233949999999993     45.523449999999997     48.247954999999983
C      46.087649999999996     45.828749999999999     47.333865999999979
C      49.838850000000008     49.082050000000010     48.571454999999979
C      49.015349999999998     49.805549999999997     47.743334999999981
H      48.921149999999997     46.208250000000007     50.007404999999984
H      45.860550000000003     47.688650000000010     46.019194999999982
H      50.518250000000009     46.948750000000004     49.170174999999979
H      47.767750000000007     49.309250000000006     45.992595000000016
H      46.723050000000001     45.562550000000002     49.270764999999983
H      45.393450000000001     45.165850000000006     46.813548999999981
H      50.606549999999999     49.385350000000003     49.324544999999979
H      49.207449999999994     50.834149999999994     47.824224999999984
