18

C      48.195443499999996     48.807899999999997     47.220599999999997
C      48.252403500000000     47.522700000000000     48.059299999999993
C      47.287823500000002     48.431500000000000     46.159300000000002
C      47.783213500000002     46.221000000000004     47.998999999999995
C      48.891943499999996     49.973799999999997     47.553500000000000
C      48.811243500000003     47.745000000000005     49.411199999999994
C      46.693831500000002     47.147000000000006     45.929699999999997
C      46.901083499999999     46.049800000000005     46.892399999999995
C      49.318013500000006     50.099100000000007     48.929900000000004
C      49.388213500000006     48.971000000000004     49.883300000000006
H      47.115953500000003     49.065700000000007     45.298100000000005
H      48.176873499999999     45.518500000000003     48.733599999999996
H      48.958723500000005     50.841400000000007     46.881600000000006
H      48.771603499999998     46.843599999999995     50.279899999999998
H      46.158866500000002     47.210599999999999     45.051400000000001
H      46.239561499999994     45.079099999999997     46.707200000000000
H      49.602373499999999     50.920900000000003     49.468400000000003
H      49.841133499999998     49.363100000000003     50.948599999999999
