18

C      48.218149999999987     47.321699999999986     47.850599999999993
C      48.820350000000005     48.673400000000001     48.245699999999999
C      48.280349999999999     46.691100000000006     46.472500000000004
C      49.505150000000000     49.222899999999996     47.112099999999998
C      47.127849999999995     46.863699999999994     48.719500000000004
C      48.737549999999999     49.311599999999999     49.509900000000002
C      49.069850000000002     47.162999999999997     45.430500000000002
C      49.626649999999998     48.554599999999994     45.786799999999999
C      46.790049999999994     47.440799999999996     49.988100000000003
C      47.939250000000001     48.273399999999995     50.318899999999999
H      47.871650000000002     45.653999999999996     46.460500000000003
H      49.899450000000002     50.346000000000004     47.292100000000005
H      46.456050000000005     46.116200000000006     48.565800000000010
H      49.219449999999995     50.203199999999995     49.841000000000008
H      49.008150000000001     46.352800000000002     44.767499999999998
H      50.017049999999998     49.099199999999996     44.868800000000000
H      45.982950000000002     47.137400000000000     50.634900000000002
H      47.978349999999992     48.342699999999994     51.232500000000002
