18

C      47.294549999999994     47.526550000000000     48.737849999999987
C      47.710149999999999     47.608250000000005     47.246650000000002
C      46.341650000000001     48.580850000000005     49.204449999999994
C      47.416049999999998     48.730350000000008     46.397850000000005
C      47.988650000000000     46.678550000000008     49.661950000000004
C      48.801349999999999     46.695250000000009     46.739549999999994
C      46.103449999999995     49.526050000000005     48.098150000000004
C      46.546250000000001     49.819650000000003     46.766350000000003
C      49.173649999999995     46.069350000000007     49.023449999999997
C      49.545049999999996     45.957349999999998     47.662149999999997
H      46.016050000000000     48.614049999999999     50.155649999999994
H      47.786649999999995     48.552849999999999     45.497050000000002
H      47.375949999999996     46.257150000000003     50.502949999999998
H      49.139249999999997     46.574450000000006     45.566649999999996
H      45.691849999999995     50.315750000000001     48.779449999999997
H      46.599249999999998     50.813549999999999     46.314049999999995
H      49.728749999999998     45.612349999999999     49.912549999999996
H      50.308150000000005     45.186450000000001     47.491150000000005
