18

C      47.082599999999992     47.768499999999989     48.560149999999993
C      48.412599999999998     47.180299999999995     48.092749999999995
C      47.551100000000005     48.787399999999998     49.559149999999988
C      49.791800000000002     47.481499999999997     48.620949999999993
C      45.753700000000002     47.459899999999998     48.074849999999998
C      48.357199999999999     46.398299999999999     46.876750000000001
C      48.858899999999991     49.125700000000002     49.986649999999997
C      50.103200000000001     48.465399999999995     49.451349999999991
C      45.685499999999998     46.733899999999998     46.846849999999989
C      46.981999999999999     46.097099999999990     46.389349999999993
H      46.792600000000000     49.246999999999993     50.111249999999998
H      50.643600000000006     46.935499999999998     48.127849999999995
H      44.883699999999997     47.748500000000000     48.514749999999992
H      49.509999999999991     46.202799999999996     46.789049999999989
H      49.012799999999999     49.955300000000001     50.658349999999999
H      51.186500000000002     48.885500000000000     49.408549999999991
H      44.813499999999998     46.547199999999997     46.300849999999997
H      46.779299999999999     46.044699999999999     45.341650000000001
