18

C      47.471549999999993     48.567250000000001     47.151749999999993
C      48.033950000000019     47.861150000000002     48.359550000000006
C      48.100950000000012     49.621350000000000     46.491450000000000
C      49.763450000000006     49.485750000000003     48.324050000000007
C      46.247050000000002     47.813549999999999     46.787649999999999
C      47.751750000000001     46.602750000000007     49.173950000000005
C      48.975850000000008     48.577550000000009     49.286449999999995
C      49.330250000000007     49.965650000000004     47.076850000000000
C      46.310450000000003     46.405050000000010     47.105050000000006
C      46.796550000000011     45.845450000000007     48.395149999999994
H      47.543250000000015     50.230650000000004     45.611950000000000
H      50.647750000000002     49.803950000000007     48.862150000000007
H      45.606350000000006     48.325450000000011     46.025050000000000
H      47.997250000000008     46.400250000000007     50.296650000000007
H      48.842449999999999     48.590250000000005     50.388050000000000
H      49.879950000000008     50.821249999999999     46.626049999999999
H      45.352249999999998     45.690750000000001     46.661450000000002
H      46.208050000000000     45.178750000000001     48.994250000000001
