18

C      48.801949999999998     47.907950000000000     48.397699999999993
C      47.335350000000005     48.253150000000012     48.054400000000001
C      49.609549999999999     49.213950000000004     48.046999999999997
C      46.854950000000002     49.435150000000000     47.349900000000005
C      49.180850000000007     46.827950000000001     49.199399999999997
C      46.296149999999997     47.051050000000004     48.135300000000001
C      49.192049999999995     50.345549999999996     47.380899999999997
C      47.740049999999997     50.460750000000012     46.982399999999998
C      48.195049999999995     45.727550000000001     49.239699999999999
C      46.820949999999996     45.876150000000003     48.549700000000001
H      50.698250000000002     49.127850000000002     48.429500000000004
H      45.903750000000002     49.565050000000006     46.874399999999994
H      50.302949999999996     46.749950000000005     49.438100000000006
H      45.301749999999998     46.760350000000003     48.000699999999995
H      49.856750000000005     51.235250000000001     47.512400000000000
H      47.457650000000001     51.040050000000001     46.153800000000004
H      48.556650000000005     44.764749999999999     49.846199999999996
H      46.070750000000004     45.095850000000006     48.328900000000004
