18

C      48.731999999999992     47.924849999999992     48.015249999999988
C      47.330700000000000     47.917950000000005     48.405549999999991
C      49.239899999999999     46.516350000000003     47.499150000000000
C      46.448999999999998     46.925650000000005     48.485049999999987
C      49.497900000000001     49.105750000000000     48.016949999999994
C      46.890400000000000     49.175850000000011     48.977249999999998
C      48.236599999999996     45.529350000000008     47.433149999999998
C      46.826099999999997     45.699750000000009     47.938849999999988
C      48.879199999999997     50.445950000000011     48.344649999999987
C      47.635599999999997     50.397850000000005     48.727549999999994
H      50.311599999999999     46.303450000000012     47.432549999999992
H      45.465499999999999     47.043350000000004     48.996649999999988
H      50.534500000000001     48.931050000000013     47.702149999999989
H      45.666799999999995     49.211850000000013     49.179349999999999
H      48.393000000000001     44.548349999999999     46.820650000000001
H      46.084699999999998     45.053650000000005     48.125149999999991
H      49.134199999999993     51.451650000000001     48.395249999999990
H      46.976900000000001     51.375450000000015     48.978949999999998
