18

C      47.787399999999991     48.894199999999991     48.185149999999993
C      47.768000000000001     47.350899999999996     48.018450000000001
C      47.149199999999993     49.547100000000000     47.075549999999993
C      46.843800000000002     46.758299999999998     47.011650000000003
C      48.362799999999993     49.488600000000005     49.411749999999998
C      48.508199999999988     46.441399999999994     48.887949999999989
C      46.140000000000001     49.051900000000003     46.160950000000000
C      46.219799999999992     47.620899999999999     46.048850000000002
C      49.058199999999999     48.450099999999992     50.123449999999991
C      49.451799999999992     47.215599999999995     49.589749999999995
H      47.495399999999989     50.722999999999999     47.169349999999994
H      47.165099999999995     45.818199999999997     46.706549999999993
H      47.989699999999999     50.363999999999997     49.855949999999993
H      48.789800000000000     45.277000000000001     48.492750000000001
H      45.771400000000000     49.860699999999994     45.432649999999995
H      45.801599999999993     46.975399999999993     45.207650000000001
H      49.846599999999995     49.064499999999995     50.792349999999999
H      50.228600000000000     46.527400000000000     49.910049999999998
