5

C      48.443649999999991     47.650749999999995     47.973549999999989
H      48.795350000000006     47.351550000000003     49.058450000000001
H      48.609050000000003     47.099649999999997     46.941549999999999
H      47.204649999999994     47.548850000000002     47.892950000000006
H      48.493850000000002     48.900350000000003     48.122750000000003
