18

C      48.524849999999986     47.625399999999992     47.737279999999998
C      47.556749999999994     48.629000000000005     48.181949999999986
C      49.296550000000003     46.647700000000000     48.504989999999992
C      47.516549999999995     48.520200000000003     49.696990000000000
C      48.705949999999994     47.978999999999999     46.271500000000003
C      46.698049999999995     49.510499999999993     47.636730000000000
C      49.146049999999995     46.636600000000001     49.868390000000005
C      48.303549999999994     47.637100000000004     50.516490000000005
C      47.773849999999996     48.761899999999997     45.605540000000005
C      46.886949999999999     49.647599999999997     46.241919999999993
H      49.948850000000000     45.686800000000005     48.254790000000000
H      46.698449999999994     49.036799999999999     50.309889999999996
H      49.619749999999996     47.563599999999994     45.681719999999999
H      46.051150000000000     50.066400000000002     48.306989999999999
H      49.816449999999996     46.060900000000004     50.496089999999995
H      48.007249999999999     47.784099999999995     51.545890000000000
H      48.495649999999998     48.901399999999995     44.454110000000000
H      46.296650000000000     50.313199999999995     45.613789999999995
