5

C      47.893899999999995     47.857249999999993     48.328949999999999
H      47.650700000000001     47.963049999999996     47.241550000000004
H      47.199399999999997     47.130750000000006     48.714449999999999
H      47.676800000000000     48.871250000000003     48.758449999999996
H      48.800600000000003     47.128749999999997     48.198549999999997
