18

C      47.394049999999993     48.451049999999995     48.182249999999996
C      48.541150000000009     47.576650000000001     48.331049999999998
C      47.301650000000002     49.602249999999998     49.056850000000004
C      49.563449999999996     48.024950000000004     49.342350000000003
C      46.491050000000008     48.085750000000004     47.042149999999999
C      48.757250000000006     46.439050000000009     47.339550000000003
C      48.147750000000009     49.786350000000013     50.143050000000009
C      49.348950000000009     48.956350000000000     50.369850000000007
C      46.544550000000008     46.949449999999999     46.257750000000001
C      47.821649999999998     46.154449999999997     46.466650000000001
H      46.385050000000000     50.291150000000016     49.036149999999999
H      50.360350000000004     47.376450000000006     49.538549999999994
H      45.639649999999996     48.748350000000002     47.064750000000004
H      49.615349999999999     45.835549999999998     47.232550000000003
H      48.148550000000007     50.653649999999999     50.725749999999998
H      50.311850000000000     49.176450000000017     50.854149999999997
H      46.264450000000004     46.483050000000006     45.145850000000003
H      47.816049999999997     45.346350000000001     45.682949999999998
