120

C      51.230299999999993     41.134949999999989     43.926549999999992
C      46.045100000000005     47.093450000000004     45.506450000000001
C      47.847400000000007     53.726850000000013     46.977450000000005
C      46.694699999999997     49.481549999999999     48.432550000000006
C      45.941199999999995     50.707149999999999     47.985849999999999
C      47.306899999999999     53.060350000000014     48.035250000000005
C      45.823099999999997     49.291349999999994     47.256950000000003
C      46.372500000000002     51.992450000000005     48.078350000000000
C      46.371300000000005     52.803250000000006     49.315049999999999
C      45.541700000000006     48.174549999999996     46.217250000000007
C      48.868899999999996     54.542950000000005     46.481350000000006
C      47.334500000000006     52.264750000000006     50.492750000000001
C      43.416399999999996     46.191150000000007     45.587350000000001
C      44.552199999999999     47.090149999999994     45.889550000000000
C      47.626000000000005     54.965850000000003     46.187250000000006
C      41.896300000000004     46.591450000000009     45.309950000000001
C      47.095100000000002     46.499050000000011     44.977350000000001
C      43.155000000000001     42.792950000000005     45.913049999999998
C      52.036200000000008     43.339449999999999     42.892349999999993
C      52.808400000000006     44.238550000000004     43.736949999999993
C      44.067700000000002     42.624049999999997     44.729050000000001
C      43.486900000000006     43.426050000000004     47.247550000000004
C      50.759299999999996     42.281450000000007     42.907150000000001
C      51.780200000000008     44.795349999999999     44.842550000000003
C      45.495400000000004     42.975750000000005     44.945450000000008
C      45.308300000000003     44.371549999999999     48.569350000000000
C      46.422100000000000     45.021450000000002     48.808149999999998
C      48.900700000000001     45.021050000000002     47.941550000000007
C      50.038700000000006     44.843249999999998     47.034450000000007
C      48.536799999999999     42.696150000000003     44.443350000000009
C      44.895300000000006     43.617250000000013     47.282550000000001
C      47.512600000000006     44.759950000000003     47.674250000000001
C      49.842700000000008     42.979150000000004     43.985950000000003
C      50.457700000000003     44.140950000000004     44.661850000000001
C      45.749899999999997     43.470950000000002     46.192950000000010
C      49.571700000000007     44.287650000000014     45.844750000000005
C      48.188500000000005     43.696850000000012     45.486450000000005
C      47.147300000000001     43.925650000000005     46.504150000000010
C      52.171300000000002     45.429950000000005     46.064850000000007
C      51.258700000000005     45.672050000000013     47.083449999999999
C      41.783200000000001     42.411050000000003     45.719549999999998
C      41.557300000000005     41.897850000000005     44.218750000000000
C      42.428400000000003     42.063450000000003     43.047950000000000
C      43.811300000000003     42.408450000000002     43.250850000000000
C      52.703600000000009     43.199150000000003     41.598349999999996
C      54.043999999999997     43.845550000000003     41.422349999999994
C      54.894199999999998     44.148850000000010     42.541150000000002
C      54.107100000000003     44.594650000000001     43.625249999999994
C      54.590199999999996     45.562550000000002     44.688749999999999
C      53.660499999999999     45.640249999999995     46.092650000000006
C      42.228800000000000     43.806449999999998     48.098150000000004
C      40.765799999999999     42.952050000000014     47.980950000000007
C      40.599899999999998     42.743049999999997     46.514250000000004
C      40.175400000000003     41.907550000000001     43.708050000000000
C      40.100400000000000     44.149050000000003     45.942149999999998
C      41.050300000000000     45.336449999999999     45.330650000000006
C      56.128399999999999     45.419050000000013     44.917349999999999
C      40.765999999999998     46.430250000000001     46.186350000000004
C      50.798000000000002     54.079750000000004     51.919350000000009
C      49.616200000000006     53.794650000000004     52.890950000000004
C      52.180000000000007     54.213650000000001     52.319450000000003
C      50.182900000000004     53.792649999999995     54.176349999999999
C      50.529200000000003     54.153649999999999     50.459450000000004
C      48.293099999999995     53.650450000000006     52.172250000000005
C      52.605100000000007     53.641850000000005     53.535950000000000
C      51.551200000000009     53.527650000000008     54.573250000000002
C      49.207899999999995     53.882549999999995     49.919950000000000
C      48.067300000000003     53.699550000000002     50.752350000000007
H      44.265600000000006     53.435350000000014     48.978149999999999
H      47.682500000000005     49.059550000000002     48.720350000000010
H      47.933700000000002     51.431349999999995     50.107950000000002
H      47.293999999999997     51.702650000000006     51.447249999999997
H      43.188800000000001     45.389250000000004     46.237850000000009
H      43.781700000000001     45.780349999999999     44.694650000000010
H      50.077700000000007     54.335149999999999     46.430950000000010
H      46.917200000000008     55.732950000000002     45.965150000000008
H      41.788400000000003     47.168850000000006     44.465249999999997
H      46.790000000000006     45.735150000000004     44.473750000000010
H      48.125000000000000     46.731150000000000     45.064450000000008
H      50.496499999999997     40.920550000000006     44.657150000000001
H      51.512900000000002     40.267049999999998     43.388649999999998
H      44.953699999999998     54.633750000000006     50.279350000000008
H      50.133800000000008     41.885850000000005     42.091049999999996
H      46.360200000000006     42.912750000000003     44.132249999999999
H      44.650300000000001     44.376649999999998     49.265349999999998
H      46.346100000000007     45.838850000000008     49.541750000000008
H      49.007199999999997     45.586150000000004     48.864649999999997
H      48.079700000000003     41.832750000000004     43.839950000000002
H      51.586399999999998     46.205950000000001     47.995750000000001
H      41.855300000000000     41.785150000000002     42.067350000000005
H      44.705900000000000     42.410750000000007     42.471450000000004
H      52.418199999999999     42.732250000000008     40.617450000000005
H      54.628699999999995     43.893850000000000     40.406649999999999
H      55.941199999999995     44.211250000000007     42.563649999999996
H      54.428200000000004     46.481949999999998     44.058950000000010
H      53.874700000000004     46.547150000000002     46.409050000000008
H      54.186599999999999     44.869850000000000     46.846850000000003
H      42.234500000000004     43.338250000000002     49.091450000000009
H      41.930100000000003     44.818050000000014     48.486249999999998
H      39.972200000000001     42.718950000000007     48.581350000000000
H      41.300400000000003     42.120649999999998     48.623750000000001
H      39.985399999999998     41.833450000000013     46.419449999999998
H      39.158000000000001     44.064450000000008     45.308950000000010
H      39.620400000000004     44.448549999999997     47.056550000000001
H      41.892000000000003     44.950350000000014     44.759950000000003
H      56.472800000000007     46.489950000000007     45.263249999999999
H      56.841999999999999     45.295550000000006     44.051650000000009
H      56.458100000000002     44.561050000000009     45.356850000000009
H      40.024400000000000     46.460350000000005     46.984050000000011
H      52.040000000000006     41.639250000000004     44.576850000000007
H      53.127700000000004     54.521750000000011     51.796350000000004
H      49.308599999999998     53.628850000000000     54.894750000000002
H      51.478800000000007     54.481449999999995     49.871450000000010
H      47.671000000000006     53.475750000000005     52.964849999999998
H      53.753799999999998     53.527750000000012     53.668650000000000
H      51.626999999999995     53.268850000000000     55.593350000000001
H      49.284999999999997     54.199150000000003     48.778450000000007
H      47.333900000000000     54.480850000000004     50.673650000000009
N      45.093299999999999     53.766850000000005     49.535049999999998
O      39.294000000000004     41.405349999999999     43.301349999999999
