18

C      48.390549999999983     47.445299999999989     47.386204999999997
C      48.586950000000002     48.323599999999999     48.584265000000002
C      48.157349999999994     46.096299999999999     48.009675000000001
C      48.106549999999991     48.102600000000010     50.043685000000004
C      48.593249999999998     47.571300000000008     46.000725000000003
C      48.694349999999993     49.726399999999998     48.237205000000003
C      47.793249999999993     45.797100000000000     49.347684999999998
C      47.546049999999994     46.885800000000003     50.345385000000000
C      48.761449999999996     48.973300000000009     45.819765000000004
C      48.875950000000003     50.061500000000009     46.857215000000004
H      48.330849999999991     45.198099999999997     47.265775000000005
H      47.883249999999997     48.973799999999997     50.798884999999999
H      48.718449999999990     46.787599999999998     45.136975000000000
H      48.796449999999993     50.515200000000007     48.919305000000008
H      47.766149999999996     44.724400000000003     49.779085000000002
H      47.124049999999997     46.744100000000003     51.252085000000001
H      48.755749999999992     49.325500000000005     44.747914999999999
H      48.551050000000004     51.275599999999997     46.651425000000003
