140

C      41.831949999999992     45.746749999999992     48.178510000000003
C      41.158349999999999     47.010649999999998     47.625770000000003
C      43.951549999999997     48.708250000000007     51.060740000000010
C      42.705950000000001     45.812349999999995     49.445430000000002
C      41.298349999999999     48.198149999999998     48.506500000000003
C      43.761150000000001     47.319249999999997     51.416100000000000
C      42.881150000000005     49.479749999999996     50.388840000000002
C      42.778250000000000     46.999049999999997     50.271990000000002
C      42.248549999999994     48.254850000000005     49.703680000000006
C      41.449750000000009     44.450649999999996     47.499300000000005
C      40.656850000000006     44.280850000000001     46.327249999999992
C      40.079650000000001     45.623450000000005     45.826470000000000
C      40.444850000000002     47.111850000000004     46.326900000000009
C      41.965250000000012     43.269649999999999     48.254700000000000
C      41.359949999999998     41.972650000000002     47.649220000000000
C      40.908150000000006     41.594049999999996     46.356150000000000
C      40.534950000000009     42.895449999999997     45.794319999999999
C      42.931649999999991     43.281949999999995     49.387940000000000
C      43.180150000000012     44.536950000000004     50.127640000000000
C      43.988250000000008     44.769050000000007     51.274999999999991
C      44.422849999999997     46.022850000000005     51.874780000000001
C      39.270049999999998     45.969249999999988     44.733900000000006
C      44.861650000000012     49.970450000000000     51.440560000000005
C      41.873850000000004     50.147149999999996     51.144260000000003
C      45.681349999999995     49.865449999999996     52.900099999999995
C      41.526150000000001     51.416750000000008     50.054870000000008
C      52.701949999999997     51.687550000000002     52.763100000000009
C      51.343549999999993     51.515050000000002     52.685190000000006
C      50.937150000000003     51.084850000000003     48.791579999999996
C      53.532950000000000     52.048249999999996     51.516350000000003
C      50.702649999999991     51.293350000000004     51.469090000000008
C      53.705349999999996     50.125349999999997     48.314089999999993
C      49.594050000000010     50.906350000000003     48.741869999999992
C      52.883949999999999     51.465050000000005     50.209319999999991
C      51.511250000000004     51.318650000000005     50.142930000000007
C      53.585350000000005     51.721950000000007     54.047250000000005
C      52.763149999999996     51.099550000000008     55.133449999999996
C      51.316549999999992     51.205849999999998     55.129149999999996
C      50.378749999999997     51.563549999999992     53.934650000000005
C      54.849249999999998     52.375450000000001     54.182350000000000
C      55.567149999999998     52.493549999999999     55.519849999999991
C      54.837949999999992     51.747650000000007     56.515050000000002
C      53.627750000000006     50.874949999999998     56.348750000000010
C      55.563649999999996     52.814449999999994     52.938969999999998
C      54.823849999999993     52.751850000000005     51.762039999999999
C      50.431649999999991     50.828150000000008     56.131850000000000
C      48.997850000000000     51.104050000000001     56.503749999999997
C      48.275449999999992     51.709550000000007     55.314650000000000
C      49.006050000000002     51.750550000000004     54.062249999999992
C      49.195049999999995     51.850149999999999     51.517529999999994
C      48.369650000000007     51.162250000000000     52.685909999999993
C      54.722250000000003     51.083050000000000     48.026359999999997
C      46.662649999999999     51.069950000000006     52.628370000000004
C      48.200450000000004     50.546050000000008     48.720799999999997
C      53.907950000000000     50.660749999999993     42.761650000000017
C      54.101550000000003     49.994650000000007     44.141225000000006
C      53.415049999999994     54.269950000000009     45.444800000000001
C      54.390250000000009     53.751150000000010     46.492970000000000
C      54.414749999999998     52.038250000000005     42.775349999999989
C      54.963149999999999     50.605649999999997     45.130569999999992
C      53.694949999999992     54.304249999999996     44.057744000000000
C      55.409250000000000     52.851849999999999     46.279309999999995
C      54.556550000000001     53.020049999999998     43.968840000000000
C      55.060550000000006     52.110050000000001     45.053129999999996
C      53.092449999999999     49.981049999999996     41.805150000000012
C      53.081649999999996     48.557850000000002     41.842650000000020
C      53.078449999999989     47.940250000000006     43.070350000000019
C      53.644849999999991     48.565550000000002     44.247427000000002
C      52.047750000000008     54.797750000000008     45.771900000000002
C      51.440449999999998     54.567850000000007     46.964770000000001
C      52.385149999999996     54.176250000000010     48.154679999999999
C      53.847350000000006     54.058550000000011     47.884300000000010
C      52.439750000000004     50.737049999999996     40.753450000000015
C      52.123049999999992     50.123450000000005     39.570550000000011
C      52.739449999999991     48.771850000000001     39.465750000000000
C      53.072749999999999     47.902149999999992     40.557850000000016
C      54.429649999999995     52.667150000000007     41.426050000000018
C      53.126350000000002     52.369349999999997     40.740150000000014
C      51.572649999999996     51.833349999999996     41.143349999999998
C      55.588949999999997     52.766749999999988     40.317549999999997
C      53.897050000000007     51.205950000000001     49.204089999999994
C      55.849450000000004     52.054049999999989     47.542050000000003
H      40.915550000000010     48.986750000000001     48.042529999999999
H      43.331350000000000     50.190749999999994     49.696119999999993
H      39.901350000000008     48.114249999999998     46.044830000000005
H      40.912850000000006     40.633550000000000     45.933660000000003
H      39.808149999999998     42.526049999999998     44.993049999999997
H      43.191350000000000     42.313749999999999     49.331230000000005
H      44.586849999999998     45.842849999999999     52.984290000000001
H      43.908050000000003     43.826549999999997     51.795569999999998
H      45.515349999999998     46.003050000000002     51.680180000000007
H      44.342849999999999     50.970249999999993     51.445329999999998
H      45.714350000000010     50.037749999999988     50.683700000000002
H      42.334950000000006     50.538749999999993     52.100650000000002
H      40.882150000000010     49.481549999999999     51.056219999999996
H      46.139550000000000     48.751049999999992     53.187749999999994
H      45.132249999999999     50.345550000000003     53.794150000000002
H      40.406450000000007     51.658249999999995     49.998370000000008
H      41.592050000000000     52.348450000000000     50.634240000000005
H      42.229849999999999     51.720249999999993     49.374600000000001
H      52.849649999999997     48.380449999999996     38.477350000000001
H      51.492249999999999     51.161150000000006     47.784320000000008
H      56.401550000000000     53.188149999999993     55.538849999999996
H      54.960049999999995     52.361550000000008     57.477350000000001
H      56.659549999999996     53.003249999999994     53.062389999999994
H      55.385649999999998     52.795950000000005     50.835729999999998
H      50.873449999999991     50.365049999999997     56.921849999999992
H      48.599550000000008     50.957850000000008     57.522649999999999
H      47.369550000000004     51.220549999999989     55.704750000000004
H      48.703450000000004     51.636350000000007     50.544150000000002
H      49.182550000000006     52.983949999999993     51.391260000000003
H      48.187750000000008     49.975449999999995     52.798119999999997
H      53.252750000000006     49.225650000000002     47.997410000000002
H      46.434550000000002     52.126850000000005     52.860320000000002
H      46.615750000000006     51.426049999999989     51.655040000000000
H      47.461750000000009     50.881749999999997     47.968420000000009
H      47.805950000000010     49.984549999999999     49.559939999999997
H      55.014650000000003     50.198449999999994     46.060900000000004
H      53.070549999999997     54.379550000000009     43.256650000000022
H      56.315650000000005     53.296450000000007     46.069180000000003
H      52.757950000000008     46.925449999999998     42.996050000000025
H      53.572350000000000     48.109650000000002     45.304019999999994
H      51.477350000000001     55.366450000000000     45.065119999999993
H      50.395350000000008     54.886850000000010     47.321880000000007
H      51.937849999999997     53.898249999999990     49.021220000000000
H      54.434550000000002     54.423950000000005     48.782910000000001
H      51.895250000000004     50.566550000000007     38.535950000000000
H      53.516649999999998     46.943049999999999     40.172250000000005
H      54.530050000000003     53.790249999999986     41.661950000000004
H      53.230750000000000     52.934049999999999     39.681950000000015
H      50.685749999999999     52.017150000000001     40.427350000000018
H      51.512550000000005     52.074849999999998     42.288349999999994
H      55.229849999999999     52.499449999999996     39.291550000000015
H      56.512150000000005     52.250749999999996     40.687949999999987
H      55.682749999999999     53.747750000000011     39.919849999999983
H      56.756850000000000     51.561650000000000     47.384330000000006
H      56.016249999999999     52.865849999999995     48.218779999999995
O      39.243150000000000     45.442149999999998     43.756449000000003
O      40.851250000000007     41.987650000000002     48.828429999999997
O      53.518749999999997     50.073049999999995     57.180549999999997
