18

C      47.314700000000002     47.565499999999993     47.936349999999990
C      48.623700000000007     48.136200000000002     48.469749999999998
C      46.732999999999997     46.368200000000002     48.596649999999990
C      49.543799999999997     47.512000000000000     49.376449999999998
C      47.022799999999997     48.339800000000011     46.713949999999997
C      49.107199999999999     49.414600000000007     48.210549999999998
C      47.677100000000003     45.577700000000000     49.478650000000009
C      49.024099999999997     46.235399999999998     49.684350000000002
C      47.276500000000006     49.661400000000000     46.568550000000002
C      48.286200000000001     50.207000000000008     47.221150000000002
H      45.645699999999998     46.079900000000002     48.456449999999997
H      50.354300000000002     48.212299999999999     49.587750000000007
H      46.318700000000000     47.897300000000001     46.078049999999998
H      49.932700000000004     50.167300000000012     48.613250000000001
H      47.731400000000001     44.684899999999999     50.257950000000001
H      49.670400000000008     45.444900000000004     50.168849999999999
H      46.535600000000009     50.592600000000004     45.742049999999999
H      48.590700000000005     51.315100000000001     47.010649999999998
