18

C      47.643499999999996     48.737799999999986     48.066649999999996
C      48.223399999999998     47.330599999999997     48.078449999999989
C      46.269499999999994     48.567599999999999     48.628450000000001
C      47.800700000000006     46.052899999999994     48.669249999999991
C      48.072500000000005     49.980999999999995     47.338250000000002
C      49.452100000000002     47.336699999999993     47.221750000000000
C      45.673599999999993     47.270499999999998     49.055049999999994
C      46.621600000000001     46.149199999999993     49.199950000000001
C      49.359899999999996     49.716600000000000     46.851950000000002
C      50.229500000000002     48.519499999999994     46.944350000000000
H      45.469499999999996     49.428699999999992     48.540649999999985
H      48.544300000000007     45.130099999999999     48.792449999999988
H      47.399500000000003     50.869900000000001     46.993150000000000
H      50.213899999999995     46.444199999999995     46.906049999999993
H      44.633300000000006     47.415099999999995     49.530549999999991
H      46.142899999999997     45.298399999999994     49.584350000000001
H      49.710499999999996     50.593899999999991     46.415649999999999
H      51.366699999999994     48.328999999999994     46.624049999999997
