18

C      48.604499999999987     47.414899999999989     48.238149999999997
C      47.758699999999990     48.624299999999998     47.856950000000005
C      48.616799999999998     47.145799999999994     49.638049999999993
C      47.597499999999997     49.742799999999995     48.764650000000003
C      49.039500000000004     46.111999999999995     47.579650000000001
C      47.368299999999991     48.457299999999996     46.378050000000002
C      48.155999999999992     48.056599999999996     50.585650000000001
C      47.705999999999989     49.401099999999992     50.131150000000005
C      48.778099999999995     46.405399999999993     46.208849999999998
C      47.947699999999998     47.476799999999990     45.565150000000003
H      48.736699999999999     46.164399999999993     49.995249999999999
H      47.237200000000001     50.769500000000001     48.403649999999999
H      49.579000000000008     45.230499999999999     48.069350000000000
H      46.420999999999992     48.752900000000004     45.862050000000004
H      48.128999999999991     47.948499999999996     51.658050000000003
H      47.563000000000002     50.188099999999999     50.864150000000009
H      49.008399999999995     45.396499999999996     45.518150000000006
H      47.661199999999994     47.378999999999998     44.341949999999997
