18

C      47.694549999999992     48.635389999999980     47.728229999999996
C      48.121450000000003     47.343457999999991     48.405200000000008
C      48.469450000000002     49.022459999999981     46.539879999999997
C      49.215849999999996     46.552272999999985     47.777889999999999
C      46.693450000000006     49.458589999999987     48.391279999999995
C      47.343349999999994     46.569016999999988     49.412279999999996
C      49.560250000000003     48.203759999999988     45.906360000000006
C      49.832749999999997     46.959511999999989     46.583979999999997
C      46.115349999999999     48.928239999999988     49.516739999999999
C      46.421050000000001     47.454239999999992     49.948279999999997
H      48.720450000000007     50.071389999999980     46.273309999999995
H      49.510150000000003     45.691870000000023     48.490430000000003
H      46.415450000000000     50.442129999999992     48.143140000000002
H      47.858650000000004     45.557870000000008     49.207920000000001
H      50.324149999999996     48.563349999999986     45.309399999999997
H      50.637049999999995     46.203269999999989     46.167860000000005
H      45.362950000000005     49.586549999999988     49.846390000000000
H      45.788149999999995     46.849226999999985     50.690600000000003
