18

C      48.181724499999987     47.582484999999991     47.836149999999996
C      47.581424499999990     48.766475000000000     48.139250000000004
C      49.368554499999995     47.350555000000000     48.678049999999999
C      47.546884499999990     49.355445000000003     49.516550000000002
C      48.013274499999994     46.903144999999995     46.672449999999998
C      46.460354499999994     49.217434999999995     47.366350000000004
C      49.794024499999992     48.296774999999997     49.571750000000002
C      48.845524500000003     49.256064999999992     50.079750000000004
C      46.814134499999994     47.155104999999992     45.870350000000002
C      46.128614499999991     48.442814999999996     46.197150000000008
H      49.942484499999992     46.453395000000000     48.522550000000003
H      46.867604499999992     50.036274999999989     49.855249999999998
H      48.435164499999992     45.942615000000004     46.745950000000008
H      45.826468499999990     50.010364999999993     47.759050000000002
H      50.820184500000003     48.401285000000001     49.979650000000007
H      49.151064499999997     50.057384999999996     50.922550000000001
H      46.532054499999994     46.450355000000002     45.077449999999999
H      45.179815499999997     48.776505000000000     45.580250000000007
