61

C      48.868849999999995     48.769799999999989     48.083249999999992
C      48.621149999999993     48.080499999999994     49.353050000000003
C      45.210850000000001     49.614399999999996     47.650649999999999
C      45.353249999999996     50.847999999999992     48.450450000000011
C      47.649549999999998     48.681599999999996     47.150350000000003
C      47.262349999999991     47.728800000000000     49.699149999999996
C      46.737450000000003     51.231199999999994     48.779549999999993
C      45.113750000000003     48.571700000000000     46.618650000000002
C      46.113049999999994     48.415299999999995     47.641150000000003
C      46.133649999999996     47.425499999999992     48.735350000000004
C      50.398949999999992     48.871699999999997     47.973550000000003
C      51.014449999999989     49.564900000000002     46.943550000000002
C      50.772349999999996     48.476499999999994     49.351450000000000
C      49.748249999999992     48.057899999999997     50.272350000000003
C      48.010849999999998     49.136599999999994     45.701950000000004
C      48.103949999999990     47.837100000000000     45.739850000000004
C      47.464649999999999     50.187599999999996     44.796650000000000
C      47.215749999999993     47.086099999999995     51.031450000000000
C      47.997449999999994     47.998599999999989     52.027850000000001
C      49.651449999999990     48.128200000000000     51.839649999999999
C      49.022749999999995     46.637899999999995     45.962850000000003
C      45.847050000000003     47.159099999999988     51.879449999999999
C      47.517449999999990     49.612000000000002     43.321649999999998
C      50.514949999999992     46.859099999999991     52.481450000000002
C      50.290649999999992     49.524600000000000     52.392950000000006
C      47.460050000000003     45.603299999999997     50.900449999999999
C      45.246149999999993     46.242500000000000     48.854250000000000
H      44.866149999999998     46.116899999999994     49.928249999999998
H      44.232750000000003     49.612099999999991     45.109650000000002
H      44.743350000000000     51.270299999999999     49.181249999999999
H      44.999949999999991     47.517399999999988     46.484450000000002
H      51.791649999999997     48.734899999999989     49.473649999999999
H      49.092350000000003     49.648499999999991     45.728149999999999
H      47.354849999999992     47.334499999999998     45.043250000000000
H      46.471649999999990     50.411399999999993     44.990949999999998
H      48.030449999999995     51.085199999999993     44.831550000000000
H      47.745550000000001     47.901800000000001     53.047550000000001
H      47.679250000000003     49.044599999999996     51.885550000000002
H      48.610949999999995     46.223300000000002     47.003050000000002
H      49.887449999999994     47.429799999999993     45.759050000000002
H      49.084650000000003     45.889399999999988     45.191150000000000
H      44.941949999999999     46.816899999999997     51.392550000000007
H      45.712550000000000     46.560299999999991     52.868450000000003
H      45.770350000000001     48.300199999999997     52.324249999999999
H      47.819650000000003     48.738199999999999     42.752450000000003
H      46.387549999999997     49.677099999999989     42.984349999999999
H      47.853850000000001     50.406500000000001     42.600650000000002
H      49.723250000000000     46.218799999999995     52.713650000000001
H      51.299550000000004     46.469000000000001     51.748150000000003
H      51.364649999999990     47.027099999999997     53.260349999999995
H      50.012849999999993     49.880599999999994     53.399349999999998
H      51.339350000000003     49.602699999999992     52.466950000000004
H      50.372849999999993     50.415299999999995     51.494549999999997
H      48.423049999999996     45.713499999999989     50.361849999999997
H      47.450650000000003     45.762799999999991     52.088749999999997
H      47.042749999999991     44.692399999999999     50.951249999999995
H      45.807150000000000     45.394599999999990     48.452649999999998
H      44.208350000000003     46.489999999999988     48.531849999999999
O      44.322449999999996     48.637599999999999     45.280450000000002
O      47.778849999999998     51.307600000000001     49.177150000000005
O      51.315849999999990     49.862199999999994     45.864950000000000
