18

C      47.967049999999986     48.398799999999994     48.102299999999993
C      48.442550000000004     47.380499999999998     47.325899999999997
C      48.350249999999996     48.544900000000005     49.474499999999999
C      49.459449999999997     46.473199999999999     47.967300000000002
C      46.948149999999991     49.381499999999996     47.795600000000000
C      47.691849999999995     46.891300000000001     46.064999999999998
C      49.257449999999999     47.665900000000001     50.164299999999997
C      49.755050000000004     46.602100000000000     49.327699999999993
C      46.344349999999999     49.005000000000003     46.528799999999997
C      46.695950000000003     47.866599999999998     45.599000000000004
H      47.810749999999992     49.444499999999998     50.141899999999993
H      49.702049999999993     45.982599999999998     47.211399999999998
H      46.574350000000003     50.137999999999998     48.581200000000010
H      47.845449999999992     45.862900000000003     45.578099999999999
H      49.281349999999996     47.775300000000001     51.262000000000000
H      50.465150000000001     45.862000000000002     49.791100000000000
H      45.534849999999999     49.702000000000005     46.232399999999998
H      46.131849999999993     47.556800000000003     44.738000000000000
