5

C      48.047449999999984     48.211749999999988     47.752789999999990
H      47.086149999999996     48.290250000000000     47.227975000000001
H      48.336049999999993     47.078450000000004     47.630966999999998
H      48.913850000000004     48.921549999999996     47.489132999999995
H      47.974049999999998     48.554649999999995     48.772024999999999
