6

C      47.577549999999988     48.011249999999990     47.219749999999983
C      48.144749999999995     47.954350000000005     48.520649999999989
H      47.787950000000002     48.886750000000006     46.731650000000002
H      46.827249999999999     47.291650000000004     46.752549999999999
H      49.172750000000001     48.495350000000002     48.668549999999996
H      48.118449999999989     47.113249999999994     49.268349999999998
