18

C      48.573499999999989     47.512649999999994     47.948049999999995
C      47.252899999999997     48.374949999999998     48.108550000000008
C      48.565500000000000     46.384750000000004     47.121650000000002
C      46.028099999999995     47.646250000000002     47.728550000000013
C      49.894499999999994     48.041550000000008     48.190750000000008
C      47.433700000000002     49.798250000000003     48.391550000000009
C      47.286999999999992     45.763449999999999     46.749150000000000
C      46.110599999999991     46.476350000000004     46.956950000000006
C      50.003500000000003     49.268050000000009     48.915150000000011
C      48.829999999999998     50.117150000000002     48.698950000000011
H      49.557299999999998     45.923850000000002     46.946350000000010
H      44.981999999999999     47.943350000000002     47.966450000000009
H      51.018000000000001     47.399250000000002     48.040250000000015
H      46.401499999999999     50.522250000000000     48.421350000000004
H      47.178399999999996     44.856150000000000     46.400250000000000
H      45.233400000000003     46.135649999999998     46.611550000000008
H      50.699299999999994     49.825650000000003     49.599750000000000
H      48.865399999999994     51.143850000000000     48.983950000000007
