18

C      47.890899999999988     47.679549999999985     47.274399999999993
C      48.253900000000002     48.185649999999995     48.693299999999994
C      48.596500000000006     46.592649999999992     46.667900000000003
C      49.294200000000004     47.408349999999999     49.437699999999992
C      46.856999999999999     48.293049999999994     46.493600000000001
C      47.427700000000002     49.295249999999996     49.185900000000004
C      49.504400000000004     45.811149999999998     47.215599999999995
C      49.810500000000005     46.246849999999995     48.579399999999993
C      46.350600000000000     49.511049999999997     47.029499999999999
C      46.516499999999994     50.085049999999995     48.442399999999992
H      48.562600000000003     46.462049999999991     45.681699999999992
H      49.919499999999999     47.752549999999999     50.326999999999998
H      46.416699999999992     47.907950000000000     45.673000000000002
H      47.669100000000000     49.916249999999991     50.097600000000000
H      49.958399999999997     44.939750000000004     46.300399999999996
H      50.361000000000004     45.465750000000000     48.831900000000005
H      45.638999999999996     50.020650000000003     46.517600000000002
H      46.244299999999996     51.060249999999996     48.403700000000001
