18

C      47.643499999999989     48.762199999999993     47.377899999999990
C      48.091600000000007     47.662200000000006     48.172100000000000
C      48.433999999999997     49.987900000000003     47.342300000000009
C      49.409399999999998     47.771000000000001     48.931500000000000
C      46.249499999999998     48.435300000000005     46.756600000000006
C      47.578799999999994     46.298099999999998     48.281300000000002
C      49.636400000000002     49.992899999999999     48.124800000000008
C      50.178400000000003     48.778700000000008     48.776300000000006
C      45.726999999999997     47.163900000000005     46.902699999999996
C      46.451499999999996     46.073000000000000     47.362700000000004
H      48.209999999999987     50.899700000000003     46.564900000000009
H      49.575199999999988     46.851199999999999     49.542800000000000
H      45.654199999999996     49.304899999999996     46.485700000000008
H      47.855200000000004     45.539200000000001     48.958900000000000
H      50.280799999999999     50.939100000000003     48.037800000000004
H      51.254500000000000     48.984699999999997     49.032100000000000
H      44.745500000000000     47.096399999999996     46.457200000000000
H      45.887299999999996     45.060899999999997     47.145800000000008
