13

C      47.812799999999989     48.911169999999991     48.921999999999990
C      48.396499999999996     48.155180000000001     47.931500000000000
C      49.652799999999999     48.345399999999998     46.996699999999997
C      47.880499999999998     46.726970000000001     47.954300000000003
C      46.982699999999994     46.789319999999996     49.015700000000010
C      46.825599999999994     48.088929999999998     49.619300000000010
C      50.057999999999993     47.201599999999999     46.384200000000000
H      47.699900000000000     50.130519999999997     48.885800000000003
H      50.108699999999999     49.300290000000004     46.965200000000003
H      48.084199999999996     45.869480000000003     47.350000000000001
H      46.405299999999997     45.873809999999999     49.417700000000011
H      45.891300000000001     48.390569999999997     50.385700000000000
O      49.823599999999999     46.441330000000001     45.614300000000000
