18

C      47.829044999999986     48.472599999999993     47.464849999999998
C      48.963611000000000     48.152400000000000     48.427750000000003
C      46.816244999999995     49.185100000000006     48.244450000000001
C      48.853699000000006     48.118800000000000     49.871849999999995
C      47.572244999999995     48.442000000000000     45.946449999999999
C      49.622714999999999     47.180300000000003     47.497249999999994
C      46.621144999999999     49.118700000000004     49.723150000000004
C      47.667244999999994     48.691800000000001     50.614850000000004
C      48.582937999999999     47.743800000000000     45.229849999999999
C      49.508345000000006     46.984999999999999     46.053449999999998
H      46.044645000000003     49.727199999999996     47.828649999999996
H      49.601245000000006     47.477199999999996     50.409750000000003
H      46.725245000000001     49.150400000000005     45.423950000000005
H      50.274955000000006     46.272800000000004     47.836349999999996
H      45.725044999999994     49.406300000000002     50.306150000000002
H      47.545744999999997     48.832800000000006     51.633049999999997
H      48.984795000000005     47.376100000000001     44.366950000000003
H      50.180155000000013     46.302300000000002     45.544150000000002
