18

C      47.356809999999996     47.460049999999995     47.248449999999991
C      48.277879999999996     48.487349999999999     48.124849999999995
C      45.894320000000008     47.311749999999996     47.514550000000000
C      47.579969999999989     49.215650000000004     49.140349999999998
C      48.311540000000008     46.585950000000004     46.546650000000000
C      49.701299999999989     48.601750000000003     47.894549999999995
C      45.358069999999998     47.926549999999999     48.679249999999996
C      46.191270000000003     48.788249999999998     49.446750000000009
C      49.715100000000007     46.679449999999996     46.307850000000002
C      50.427599999999998     47.860049999999994     46.973349999999996
H      45.416120000000006     46.949850000000005     46.806449999999998
H      47.928650000000005     50.077249999999999     49.790850000000006
H      47.801879999999997     45.963550000000005     45.865049999999997
H      50.345100000000002     49.326749999999997     48.485450000000000
H      44.422300000000007     48.252249999999997     48.903649999999999
H      45.934809999999999     49.216550000000005     50.264650000000003
H      50.200000000000003     45.922750000000001     45.735349999999997
H      51.577699999999993     47.781950000000002     46.905349999999999
