18

C      48.463999999999999     47.327249999999985     47.970099999999995
C      48.157300000000006     48.811749999999989     47.872299999999996
C      48.894100000000009     46.614849999999990     46.716200000000001
C      48.840100000000007     49.482849999999999     46.753799999999998
C      47.861599999999996     46.689349999999990     49.179599999999994
C      47.299400000000006     49.326149999999998     49.029399999999995
C      49.526600000000002     47.413249999999991     45.678200000000004
C      49.521400000000000     48.918749999999989     45.723500000000001
C      47.087199999999996     47.288950000000000     50.215400000000002
C      46.568700000000007     48.649249999999995     50.020499999999998
H      48.714200000000005     45.534349999999989     46.707499999999996
H      48.560699999999997     50.618549999999999     46.717299999999994
H      47.709400000000002     45.381450000000001     49.526399999999995
H      46.686199999999999     50.311549999999997     49.125199999999992
H      49.364499999999992     46.762049999999988     44.759299999999996
H      50.078599999999994     49.630449999999996     45.040499999999994
H      46.849299999999999     46.420949999999991     51.240700000000004
H      45.921400000000006     49.182649999999995     50.726699999999994
