18

C      47.437750000000001     48.001899999999992     48.569549999999992
C      48.600450000000009     48.494799999999991     47.604550000000003
C      47.733050000000006     47.069700000000005     49.563450000000003
C      49.931150000000002     48.369199999999999     48.220250000000007
C      46.090750000000000     48.246199999999995     48.234650000000002
C      48.378050000000002     49.299299999999995     46.424949999999995
C      49.166250000000005     46.758099999999992     49.958250000000007
C      50.214350000000010     47.407499999999992     49.260750000000002
C      45.875150000000005     49.195000000000000     47.147250000000000
C      46.948149999999998     49.645800000000001     46.175950000000000
H      47.072450000000003     46.334499999999998     49.861850000000004
H      50.722549999999998     49.016100000000002     47.891149999999996
H      45.304250000000010     47.779999999999994     48.723550000000003
H      49.256150000000005     49.477499999999999     45.925250000000005
H      49.221450000000004     45.922199999999997     50.711650000000006
H      51.274450000000002     47.208400000000005     49.667150000000007
H      44.725549999999998     49.430199999999992     47.398550000000000
H      46.602850000000004     50.077800000000003     45.288349999999994
