78

C      52.437499999999993     43.871304999999992     52.111300000000000
C      51.339700000000001     45.206904999999992     50.453000000000003
C      52.101900000000001     47.832004999999995     53.080200000000005
C      51.902799999999999     45.224405000000004     51.959500000000006
C      51.814700000000002     43.855705000000000     49.981800000000007
C      52.771299999999997     43.329504999999997     50.751500000000007
C      51.374899999999997     46.392004999999997     52.938599999999994
C      46.319099999999999     45.485005000000001     50.329499999999996
C      45.551899999999996     46.394705000000002     49.623999999999995
C      45.623699999999999     44.140905000000004     50.661500000000004
C      44.266900000000000     45.936305000000004     48.843000000000004
C      47.577300000000001     46.048604999999995     50.819500000000005
C      45.846299999999999     47.859504999999999     49.607100000000003
C      44.216999999999999     43.944104999999993     50.285100000000000
C      43.527799999999999     44.684704999999994     49.209600000000009
C      48.062399999999997     47.360204999999993     50.474500000000006
C      47.063299999999998     48.350304999999992     50.080799999999996
C      46.499400000000001     51.989404999999991     45.098900000000000
C      46.808299999999996     51.711704999999995     46.492000000000004
C      49.975400000000000     51.149805000000001     48.470700000000008
C      50.459800000000001     49.793604999999999     48.350899999999996
C      47.341000000000001     51.752504999999999     43.817900000000009
C      47.715600000000002     52.514105000000001     49.400100000000009
C      50.837199999999996     50.683204999999987     49.484200000000001
C      48.581899999999997     51.831004999999990     48.417500000000004
C      48.816099999999999     50.148804999999996     46.407300000000006
C      47.988599999999998     51.140704999999997     47.346400000000003
C      45.256999999999998     52.625304999999997     44.603600000000000
C      44.363100000000003     52.728605000000002     45.551400000000001
C      44.553100000000001     52.313004999999990     46.912599999999998
C      45.694400000000002     51.870705000000001     47.520600000000002
C      50.668399999999998     47.295704999999998     49.823700000000002
C      49.640900000000002     47.752004999999997     50.843199999999996
C      50.476700000000001     45.861204999999998     49.502200000000002
C      50.773399999999995     48.105904999999993     48.573599999999999
C      50.196300000000001     50.477305000000001     46.879900000000006
C      49.493499999999997     51.357905000000002     42.556100000000001
C      47.882999999999996     51.310405000000003     42.546400000000006
C      48.611799999999995     51.000005000000002     43.812700000000007
C      47.531300000000002     49.786604999999994     47.322100000000006
C      51.975899999999996     47.914504999999991     49.712500000000006
C      43.415799999999997     52.530004999999989     48.192000000000007
C      48.792899999999996     49.857204999999993     44.749899999999997
H      52.664800000000000     43.143405000000001     53.006900000000002
H      51.440899999999999     43.357105000000004     49.019199999999998
H      53.320999999999998     42.397795000000002     50.384200000000007
H      50.260500000000000     46.645105000000001     53.050600000000003
H      51.796900000000001     46.090804999999989     54.054599999999994
H      45.954499999999996     43.505205000000004     51.426699999999997
H      44.035100000000000     46.445605000000000     47.933499999999995
H      48.363900000000001     45.240404999999996     51.217700000000008
H      45.088000000000001     48.616204999999994     49.534900000000007
H      43.896000000000001     43.045405000000002     50.694699999999997
H      42.832300000000004     44.078504999999993     48.698599999999999
H      49.882899999999999     48.782505000000000     51.182299999999998
H      47.260300000000001     49.494104999999990     50.031400000000005
H      50.807600000000001     50.451705000000004     50.662999999999997
H      43.320200000000000     53.164104999999992     45.104300000000009
H      45.764699999999998     51.537205000000000     48.622500000000002
H      49.784399999999998     46.989104999999995     51.725899999999996
H      50.417099999999998     45.402404999999987     48.469499999999996
H      50.830300000000001     47.335904999999997     47.860299999999995
H      50.972400000000000     50.606704999999991     46.143699999999995
H      49.883199999999995     50.717105000000004     41.945400000000006
H      49.978200000000001     52.427605000000000     42.879300000000001
H      47.617399999999996     50.451104999999998     42.047100000000000
H      46.623899999999999     49.607104999999990     46.737600000000000
H      45.210499999999996     52.753805000000000     43.590400000000002
H      47.863599999999998     49.085004999999995     47.973399999999998
H      51.991500000000002     48.921504999999996     50.180599999999998
H      52.879700000000000     47.404804999999996     49.708100000000002
H      42.877899999999997     53.602204999999998     48.254199999999997
H      43.908000000000001     52.675505000000001     49.234800000000007
H      42.679000000000002     51.693704999999994     48.480599999999995
H      49.680499999999995     49.334504999999993     44.373199999999997
H      48.085899999999995     49.008205000000004     44.595600000000005
O      52.550699999999992     48.845504999999989     53.260999999999996
O      47.015000000000001     52.959104999999994     50.111800000000002
