36

C      47.512649999999994     48.243649999999995     48.522514999999999
C      46.723349999999996     49.392949999999999     48.785664999999995
C      47.348050000000001     50.806849999999997     45.114355000000003
C      47.769049999999993     49.786749999999998     44.208444999999998
C      48.504249999999985     48.078149999999994     47.364634999999993
C      46.704549999999998     50.611249999999998     47.837305000000001
C      48.228349999999992     48.666249999999991     44.845905000000002
C      48.558949999999996     52.038749999999993     44.983694999999997
C      47.946749999999994     48.893549999999991     46.324465000000004
C      47.134150000000005     50.166749999999993     46.512005000000002
C      47.545549999999992     47.271249999999995     49.627544999999998
C      45.909549999999996     47.832449999999994     51.847624999999994
C      46.571249999999992     47.899349999999998     50.479924999999994
C      46.028949999999995     49.303550000000001     50.125824999999992
C      49.651849999999996     47.150949999999995     47.415385000000001
C      49.806349999999995     46.574749999999995     48.829584999999994
C      48.482050000000001     46.062249999999992     49.745704999999987
C      49.053949999999986     45.976950000000002     51.074624999999997
C      47.739850000000004     44.527249999999995     49.854065000000006
C      46.859750000000005     51.890549999999990     44.448935000000006
H      45.746749999999992     51.778949999999995     44.337625000000003
H      45.896850000000001     51.416950000000000     47.967974999999996
H      48.648949999999999     47.618449999999996     44.515124999999998
H      46.272449999999992     50.182850000000002     50.710125000000005
H      49.297449999999998     46.194049999999990     46.737324999999998
H      50.511649999999989     47.349449999999990     46.815275000000000
H      50.580449999999999     47.097949999999997     49.334724999999992
H      50.180449999999993     45.517349999999993     49.127514999999988
H      47.714950000000002     43.628050000000002     50.486024999999998
H      48.275449999999992     43.944749999999999     49.131884999999997
H      46.639749999999992     44.687149999999988     49.548895000000002
H      47.621949999999998     49.837849999999989     43.166075000000006
H      47.260249999999999     52.357050000000001     43.599305000000001
O      49.831450000000004     45.632249999999999     51.864824999999996
O      45.419550000000001     47.940849999999998     52.833924999999994
O      49.575349999999986     52.371949999999998     45.270224999999996
