18

C      48.261049999999990     48.700949999999992     48.473694999999992
C      47.538950000000000     47.790749999999996     47.384595000000004
C      47.590750000000000     48.382849999999998     49.816955000000000
C      46.400149999999996     46.913150000000002     47.686934999999998
C      49.578050000000005     49.298250000000003     48.305375000000005
C      48.064549999999997     47.817950000000003     45.997914999999999
C      46.443449999999999     47.484450000000002     50.178165000000000
C      45.998450000000005     46.708050000000000     49.054324999999999
C      49.994050000000001     49.079850000000000     46.915325000000003
C      49.401049999999998     48.368949999999998     45.853295000000003
H      47.999250000000004     49.100450000000002     50.391595000000002
H      45.901949999999999     46.488250000000001     46.984895000000002
H      50.009550000000004     49.775449999999999     49.005905000000006
H      47.527650000000008     47.487050000000004     45.133695000000003
H      46.068550000000002     47.330449999999999     51.115614999999998
H      45.294849999999997     46.017249999999997     49.350445000000001
H      50.705150000000003     49.982750000000003     46.783915000000000
H      49.653549999999996     48.589350000000003     44.884385000000002
