58

C      49.835299999999997     52.756149999999991     46.838149999999992
C      47.806399999999996     48.342449999999999     47.511749999999999
C      46.875600000000006     47.630650000000003     48.311650000000000
C      48.099699999999999     51.596750000000000     49.601050000000001
C      48.152699999999996     49.781750000000002     47.964250000000007
C      46.113199999999992     48.561250000000001     49.367549999999994
C      47.465199999999996     50.420550000000006     48.921349999999990
C      46.138099999999994     50.055049999999994     49.419950000000000
C      45.024400000000000     49.290949999999995     48.885649999999998
C      48.566000000000003     47.512550000000005     46.562950000000001
C      48.163799999999995     46.139049999999997     46.393949999999997
C      47.295500000000004     45.273550000000000     47.283550000000005
C      46.558700000000002     46.188749999999999     48.318449999999999
C      49.690299999999993     48.095450000000000     45.899249999999995
C      50.441400000000002     47.120750000000001     44.971350000000001
C      49.750299999999996     45.841449999999995     44.627649999999996
C      48.594700000000003     45.352950000000007     45.229450000000000
C      50.125699999999995     49.481549999999999     46.336549999999995
C      49.432500000000005     50.176749999999998     47.569850000000002
C      46.748800000000003     43.956850000000003     47.316350000000000
C      45.671199999999999     43.556750000000008     48.188950000000006
C      44.994699999999995     44.281149999999997     49.219349999999991
C      45.579800000000006     45.603250000000003     49.218550000000000
C      45.660399999999996     47.936450000000008     50.666849999999997
C      44.761600000000001     46.684550000000002     50.068249999999992
C      49.885400000000004     51.617149999999995     47.877749999999999
C      51.261099999999999     51.990650000000002     47.612449999999995
C      51.082599999999999     50.074050000000000     45.430450000000000
C      47.057199999999995     47.721050000000005     51.565950000000001
C      47.885400000000004     48.964150000000004     51.541550000000001
C      52.042400000000001     50.719650000000001     46.834550000000000
C      49.211200000000005     52.162149999999997     49.086250000000000
H      47.498400000000004     51.976749999999996     50.508449999999996
H      43.387199999999993     43.620850000000004     50.014349999999993
H      50.042299999999997     52.306150000000002     45.827949999999994
H      48.934299999999993     53.416349999999994     47.328450000000004
H      44.476500000000001     48.498050000000006     46.839150000000004
H      50.211200000000005     45.538550000000001     43.600049999999996
H      48.131100000000004     44.328150000000008     45.105349999999994
H      47.009600000000006     43.225049999999996     46.381549999999997
H      45.026100000000000     42.583650000000006     48.163950000000000
H      45.090400000000002     48.671949999999995     51.273150000000001
H      44.325599999999994     46.199550000000002     51.086449999999999
H      43.829300000000003     47.033550000000005     49.468950000000000
H      51.965199999999996     52.796149999999997     47.838749999999990
H      47.002799999999993     46.998850000000004     52.399950000000004
H      47.419499999999999     47.151650000000004     50.845450000000000
H      48.242499999999993     48.908450000000002     50.448650000000001
H      48.789000000000001     48.821950000000001     52.180749999999989
H      47.144499999999994     49.729450000000000     51.790250000000000
H      53.016800000000003     50.897250000000000     46.415649999999999
H      52.350200000000001     50.064549999999997     47.649349999999998
H      49.603099999999998     53.149450000000002     49.547149999999995
H      42.983199999999997     48.556650000000005     48.183349999999997
N      44.015299999999996     49.073450000000008     47.711250000000007
O      50.966999999999999     50.162450000000007     44.235849999999999
O      44.260099999999994     43.772549999999995     50.370850000000004
O      51.269800000000004     47.386849999999995     44.150749999999995
