46

C      48.125199999999992     47.798499999999990     46.927099999999996
C      46.645400000000002     47.980400000000003     46.770499999999998
C      47.030200000000001     45.306300000000000     50.778900000000000
C      48.645299999999999     47.246899999999997     48.209800000000008
C      45.790900000000001     47.120300000000000     47.646099999999997
C      48.219199999999994     45.814300000000003     50.332099999999997
C      47.751899999999999     46.429400000000001     49.009999999999998
C      46.370999999999995     46.264800000000001     48.711300000000001
C      48.890700000000002     49.021099999999997     46.538699999999999
C      48.399200000000000     49.853400000000001     45.318899999999999
C      46.971100000000000     49.612000000000002     45.091099999999997
C      46.011600000000001     48.924500000000002     45.823500000000003
C      50.319499999999998     49.306599999999996     46.876899999999999
C      50.705499999999994     51.267500000000005     45.374000000000002
C      51.177799999999998     50.298099999999998     46.305300000000003
C      49.275100000000002     51.094500000000004     45.212200000000003
C      50.898599999999995     48.472900000000003     47.996699999999997
C      50.047000000000004     47.465200000000003     48.583999999999996
C      50.634800000000006     46.826999999999998     49.891199999999991
C      49.747099999999996     45.915999999999997     50.755200000000009
C      44.305199999999999     47.277700000000003     47.412200000000006
C      44.583599999999997     48.945200000000007     45.729399999999998
C      52.511199999999995     50.246500000000005     46.494999999999997
C      51.886800000000001     45.914099999999998     49.990600000000001
C      43.445399999999999     46.333100000000002     48.211499999999994
C      43.745500000000000     44.975700000000003     48.010300000000001
H      42.604700000000001     48.046600000000005     46.068800000000003
H      46.779900000000005     44.758299999999998     51.669500000000006
H      46.766699999999993     50.306800000000003     44.093600000000002
H      51.256800000000005     51.832000000000001     44.639800000000001
H      48.534399999999998     51.815900000000006     44.836799999999997
H      52.006300000000003     48.199800000000003     48.184699999999999
H      50.587399999999995     47.763800000000003     50.699800000000003
H      49.681599999999996     46.242100000000001     51.906399999999998
H      50.189500000000002     44.991799999999998     51.136200000000002
H      42.445699999999995     46.512900000000002     48.661800000000007
H      44.355399999999996     49.945200000000007     45.094799999999999
H      52.678800000000003     46.011000000000003     49.324300000000001
H      51.791699999999999     44.813499999999998     50.073300000000010
H      52.543799999999997     46.040100000000002     50.839199999999998
H      43.451299999999996     44.167999999999999     48.791300000000000
H      44.403900000000000     44.616700000000002     47.184500000000000
H      44.927199999999999     45.669499999999999     50.432800000000007
N      45.867599999999996     45.520400000000002     49.840600000000002
N      43.758099999999999     48.215300000000006     46.467399999999998
O      53.554300000000005     49.960100000000004     46.753500000000003
