18

C      47.490699999999997     48.107149999999990     47.629700000000000
C      48.536299999999997     47.451049999999995     48.403100000000002
C      46.710000000000001     49.219549999999984     48.146499999999996
C      48.451000000000008     47.661449999999988     49.886699999999998
C      47.405700000000003     47.759850000000000     46.294400000000003
C      49.173299999999998     46.300749999999994     47.796500000000002
C      46.845300000000002     49.659649999999999     49.582500000000003
C      48.021600000000007     48.963849999999994     50.273199999999996
C      48.066000000000003     46.730149999999995     45.719000000000001
C      49.402900000000002     46.259850000000000     46.391900000000000
H      45.895099999999999     49.827349999999996     47.613499999999995
H      48.408799999999999     46.757249999999999     50.542999999999999
H      46.575100000000006     48.130049999999997     45.530999999999999
H      49.473699999999994     45.379649999999998     48.273900000000005
H      46.505500000000005     50.620350000000002     49.838699999999996
H      48.250300000000003     49.199449999999999     51.241099999999996
H      47.619299999999996     46.298850000000002     44.758900000000004
H      50.104900000000001     45.750949999999989     45.903100000000002
