18

C      48.339949999999988     47.921999999999990     48.870000000000005
C      47.740849999999995     48.614500000000007     47.592200000000005
C      47.515649999999994     47.265300000000011     49.900700000000001
C      46.353649999999995     48.966200000000001     47.898600000000002
C      49.753949999999996     48.058000000000007     48.721600000000009
C      48.515849999999993     48.983200000000011     46.330900000000000
C      46.136549999999993     47.100900000000010     49.556899999999999
C      45.479649999999992     48.174900000000008     48.722300000000004
C      50.480650000000004     48.617400000000004     47.587800000000001
C      49.829450000000001     49.181700000000006     46.319200000000009
H      47.863349999999997     46.352400000000003     50.457399999999993
H      45.767649999999996     49.809100000000001     47.555199999999999
H      49.986049999999999     47.735100000000003     49.751099999999994
H      47.668349999999997     49.392099999999999     45.841800000000006
H      45.550349999999995     46.190899999999999     50.018199999999993
H      44.472649999999994     48.352100000000007     48.852900000000005
H      51.527350000000006     48.790000000000006     47.723900000000000
H      50.453749999999992     49.447000000000003     45.542600000000007
