18

C      48.517699999999998     47.628399999999999     48.141599999999997
C      47.453400000000002     48.713000000000008     48.267899999999997
C      48.111599999999996     46.221199999999996     48.374199999999988
C      46.103700000000003     48.248100000000008     48.417199999999994
C      49.952100000000002     48.124200000000002     47.758600000000001
C      47.950500000000005     50.096400000000003     48.363500000000002
C      46.747600000000006     45.672399999999996     48.270799999999994
C      45.847300000000004     46.809399999999997     48.525199999999998
C      50.242499999999993     49.468800000000002     47.608999999999995
C      49.300399999999996     50.481300000000005     48.240799999999993
H      48.894700000000000     45.553100000000001     48.256999999999991
H      45.250500000000002     49.036600000000007     48.273799999999994
H      50.945999999999998     47.339500000000001     47.474400000000003
H      47.307800000000000     50.977599999999995     48.762799999999999
H      46.595200000000006     44.510900000000007     48.119299999999996
H      44.778000000000006     46.595600000000005     48.200099999999992
H      51.221999999999994     49.271100000000004     47.237200000000001
H      49.437500000000000     51.489099999999993     48.682699999999997
