18

C      48.042949999999990     48.861349999999987     47.908299999999990
C      47.372450000000001     47.559349999999995     48.181500000000000
C      48.408750000000005     49.142249999999997     46.481799999999993
C      47.102750000000000     46.588649999999994     47.156999999999996
C      48.831049999999998     49.426350000000006     49.107299999999995
C      47.108049999999999     47.076450000000001     49.622599999999991
C      48.225549999999991     48.120349999999995     45.445599999999999
C      47.360549999999996     46.893549999999998     45.757400000000004
C      48.381650000000000     49.014649999999996     50.249299999999991
C      47.447350000000000     47.902149999999999     50.680999999999997
H      49.092050000000008     49.974849999999996     45.999600000000001
H      46.765549999999998     45.709750000000000     47.444499999999991
H      49.570950000000003     50.290250000000000     49.100999999999999
H      46.429049999999997     46.063849999999995     49.642399999999995
H      48.564450000000001     48.314250000000001     44.429699999999997
H      46.995449999999998     46.083649999999999     45.028199999999998
H      48.944949999999999     49.709150000000001     51.002899999999997
H      47.551449999999996     47.438849999999995     51.570300000000003
