18

C      48.258200000000002     48.745289999999983     48.295099999999991
C      48.069500000000005     47.316479999999999     48.242799999999995
C      46.845600000000005     49.375689999999992     48.481900000000003
C      46.764099999999999     46.651679999999985     48.201500000000003
C      49.642699999999991     49.345309999999984     48.322200000000002
C      49.278199999999998     46.576779999999999     47.814100000000003
C      45.613700000000009     48.550824999999989     48.299599999999991
C      45.439099999999996     47.181579999999968     48.037799999999997
C      50.567399999999992     48.606182999999987     47.980899999999998
C      50.530099999999990     47.173679999999962     47.713900000000002
H      46.713000000000008     50.434219999999982     48.230799999999995
H      46.552099999999996     45.664980000000000     48.282999999999994
H      49.546300000000002     50.473419999999990     48.517800000000001
H      49.281599999999997     45.526580000000010     47.510699999999993
H      44.882100000000008     49.243809999999982     48.529699999999998
H      44.522100000000009     46.716679999999968     48.018099999999997
H      51.477899999999991     49.088489999999979     47.883699999999997
H      51.398099999999999     46.570179999999965     47.470300000000002
