55

C      49.025199999999991     49.877824999999994     48.295799999999993
C      48.048800000000000     50.244815000000003     47.256700000000002
C      48.446399999999997     44.972325000000005     47.419800000000002
C      47.184899999999999     45.311685000000004     46.689700000000002
C      49.325400000000002     48.471164999999999     48.575600000000009
C      47.406800000000004     49.150045000000006     46.428800000000003
C      48.794899999999998     46.061085000000006     48.143700000000003
C      46.825500000000005     46.639475000000004     46.186900000000001
C      48.487899999999996     47.485395000000004     47.914800000000000
C      47.623300000000000     47.669195000000002     46.694699999999997
C      49.701300000000003     51.108315000000005     48.913200000000003
C      49.207200000000000     52.569715000000002     48.792900000000003
C      48.091899999999995     52.853115000000003     47.913300000000000
C      47.691699999999997     51.715415000000007     47.058999999999997
C      48.891499999999994     43.544275000000006     47.705500000000001
C      47.964399999999998     42.487805000000002     47.333700000000000
C      46.837599999999995     42.831555000000002     46.530200000000001
C      46.631199999999993     44.078665000000001     46.084600000000002
C      50.639799999999994     50.828015000000001     49.952799999999996
C      51.032899999999998     51.746414999999999     50.885400000000004
C      50.525999999999996     53.084715000000003     50.745199999999997
C      49.951200000000000     53.635515000000005     49.658200000000008
C      49.714900000000000     48.340425000000003     50.008200000000002
C      50.808899999999994     49.309885000000001     50.565700000000000
C      47.003000000000000     49.701345000000003     45.232900000000001
C      46.868399999999994     51.035215000000008     44.952300000000001
C      46.815699999999993     52.095714999999998     45.892600000000002
C      45.311999999999998     51.996015000000000     46.491100000000003
C      51.128000000000000     47.722275000000003     50.035800000000009
C      48.474099999999993     47.977115000000005     50.893900000000002
C      47.375399999999999     53.395015000000001     45.201900000000002
H      49.676900000000003     45.673595000000006     48.688999999999993
H      46.033599999999993     46.810585000000003     45.549199999999999
H      47.866900000000001     53.961415000000002     47.954400000000000
H      49.675799999999995     43.436655000000002     48.351799999999997
H      48.070300000000003     41.455785000000006     47.452600000000004
H      46.303600000000003     41.749065000000002     46.353499999999997
H      45.821699999999993     44.176485000000000     45.324300000000001
H      51.584299999999999     51.438215000000000     51.871600000000001
H      50.732600000000005     53.815815000000001     51.589500000000001
H      49.420800000000000     54.544214999999994     49.791300000000000
H      50.752600000000001     49.262995000000004     51.616799999999998
H      46.781999999999996     48.598725000000002     44.619399999999999
H      46.325699999999998     51.006214999999997     44.145899999999997
H      44.408799999999999     51.811715000000007     45.589100000000002
H      45.120999999999995     52.974914999999996     46.911100000000005
H      45.089200000000005     51.387614999999997     47.466499999999996
H      51.573399999999992     47.896185000000003     49.001500000000000
H      51.591200000000001     47.615355000000001     51.087500000000006
H      47.296199999999999     48.049705000000003     50.713200000000001
H      48.551000000000002     46.876335000000005     51.263300000000001
H      48.989300000000000     48.550175000000003     51.805099999999996
H      46.770499999999998     54.393515000000008     45.751599999999996
H      46.953400000000002     53.451115000000001     44.128399999999999
H      48.420299999999997     53.408214999999998     45.273700000000005
