47

C      47.434749999999994     48.430650000000000     49.395499999999998
C      48.959050000000005     48.104849999999999     48.759700000000002
C      48.437950000000001     45.124150000000000     52.420899999999996
C      46.753850000000000     47.773449999999997     50.476800000000004
C      49.467150000000004     46.913349999999994     49.259200000000000
C      47.521050000000002     46.267650000000003     52.450700000000005
C      48.991950000000003     45.022649999999999     51.101300000000002
C      47.454450000000008     46.830950000000001     51.118299999999998
C      48.749450000000010     46.297550000000001     50.423300000000005
C      46.949950000000001     49.657550000000001     48.812199999999997
C      47.556950000000001     50.280549999999991     47.661399999999993
C      48.867850000000004     50.117750000000001     46.830400000000004
C      49.393450000000001     48.866849999999999     47.529699999999998
C      45.887749999999997     50.319749999999999     49.638500000000001
C      45.192750000000004     51.524949999999990     48.478100000000005
C      45.460549999999998     51.754049999999992     49.838100000000004
C      48.097250000000017     51.231549999999999     46.634099999999997
C      45.056350000000009     49.668350000000004     50.531500000000001
C      45.510850000000005     48.436849999999993     51.315800000000003
C      50.718250000000012     48.659449999999993     43.908899999999996
C      50.540750000000003     49.089649999999992     45.346799999999995
C      50.336750000000009     48.273949999999999     46.574999999999996
C      50.399050000000003     46.132549999999995     48.274600000000000
C      50.921850000000006     47.135249999999999     47.341799999999999
C      49.674350000000004     44.972549999999998     47.694300000000005
C      49.282350000000008     44.421349999999990     53.645299999999999
H      47.509850000000000     52.130849999999995     46.610999999999997
H      50.980450000000005     50.460949999999997     42.579299999999996
H      46.957050000000010     46.526650000000004     53.428499999999993
H      49.971249999999998     44.482950000000002     50.921399999999998
H      45.114150000000009     52.404949999999999     50.478199999999994
H      44.119749999999996     49.985149999999990     50.489200000000004
H      50.458950000000016     47.748649999999998     43.892500000000005
H      49.975149999999999     50.099449999999990     44.920099999999998
H      51.308050000000009     45.667149999999992     48.804600000000001
H      51.880250000000004     47.507149999999996     48.028699999999994
H      51.519850000000005     46.576749999999990     46.594500000000004
H      48.912450000000007     45.226849999999999     46.954400000000000
H      50.519550000000010     44.295649999999995     47.048099999999998
H      49.133250000000004     44.169250000000005     48.459200000000003
H      48.668950000000009     43.595050000000001     53.925500000000007
H      50.259550000000004     44.153750000000002     53.485400000000006
H      49.124450000000010     45.554949999999991     54.200399999999995
H      50.643250000000009     48.780349999999999     41.799600000000005
N      50.636750000000006     49.331750000000000     42.775100000000002
O      44.498249999999999     51.558650000000000     47.397200000000005
O      44.957450000000009     48.140149999999991     52.365599999999993
