18

C      48.638159999999985     47.912949999999995     48.431364499999994
C      47.397859999999994     47.906450000000000     47.597664500000008
C      49.831800000000001     47.055950000000003     48.271864500000007
C      47.229709999999997     46.787650000000006     46.685764500000005
C      48.794390000000007     48.895950000000006     49.366164499999996
C      46.147827999999990     48.833450000000006     47.838664500000007
C      49.882069999999999     46.112550000000006     47.223064500000007
C      48.521079999999998     46.075750000000006     46.505664499999995
C      47.721570000000000     49.825050000000012     49.591464500000001
C      46.342753999999999     49.408750000000005     49.092864500000005
H      50.734139999999996     47.382150000000003     48.929564499999998
H      46.268461000000002     46.346350000000008     46.154264499999996
H      49.610199999999992     49.163750000000000     50.066934500000002
H      45.212840000000000     48.762850000000007     47.254264500000005
H      50.787160000000000     45.500950000000010     46.931064500000005
H      48.802099999999996     45.477049999999998     45.654364500000000
H      47.696010000000001     50.522950000000002     50.345635500000000
H      45.474840000000000     50.181450000000005     49.142664499999995
