55

C      38.883449999999996     37.229799999999990     36.353849999999994
C      39.568849999999998     36.007599999999996     36.597149999999992
C      38.829750000000004     37.787799999999990     41.274649999999994
C      39.453749999999999     36.392699999999998     41.308349999999997
C      38.415750000000003     37.977600000000002     37.530250000000002
C      40.094049999999996     35.453000000000003     37.808950000000003
C      38.294850000000011     38.173600000000000     39.927349999999990
C      39.950450000000004     35.640599999999999     40.249749999999999
C      38.933549999999997     37.508299999999998     38.835249999999995
C      39.724950000000007     36.221400000000003     38.928949999999993
C      38.391050000000007     37.404800000000002     34.959049999999998
C      38.799049999999994     36.542800000000000     33.888349999999988
C      39.697749999999999     35.459400000000002     34.201150000000005
C      40.014250000000004     35.040700000000001     35.479649999999999
C      38.741749999999996     38.447399999999995     42.404749999999993
C      39.180650000000000     37.779499999999999     43.678850000000004
C      40.082949999999997     36.692900000000002     43.608449999999998
C      40.313749999999999     36.054599999999994     42.398649999999989
C      37.359549999999999     38.419200000000004     34.785249999999998
C      36.952650000000006     38.746400000000001     33.374350000000000
C      37.172850000000011     37.948100000000004     32.308749999999996
C      38.099350000000001     36.910000000000004     32.503650000000000
C      36.990750000000006     39.134999999999991     35.939250000000001
C      37.746050000000011     39.272799999999997     37.260549999999995
C      37.766950000000008     40.229699999999994     38.424349999999990
C      37.385850000000005     39.425099999999993     39.744549999999997
C      36.244050000000001     40.079200000000000     33.288950000000000
C      36.551950000000005     41.162499999999994     38.041850000000004
C      38.941550000000007     41.106200000000001     38.592449999999999
C      39.068250000000006     38.185600000000001     45.036350000000006
C      38.072749999999999     36.041300000000000     31.323050000000002
H      40.422950000000000     34.332300000000004     37.762149999999991
H      40.440449999999998     34.701599999999999     40.519649999999999
H      40.223250000000007     34.739999999999995     33.537649999999992
H      40.701949999999997     34.208700000000000     35.561549999999997
H      40.579850000000008     36.398499999999999     44.418150000000004
H      41.054649999999995     35.270800000000001     41.949649999999991
H      36.570750000000004     38.259199999999993     31.309750000000001
H      35.912149999999997     39.111800000000002     35.947849999999995
H      37.357750000000010     40.213400000000000     40.510350000000003
H      36.290049999999994     39.292199999999994     39.494750000000003
H      34.945350000000005     41.458699999999993     33.525550000000003
H      38.477650000000011     39.982700000000001     43.430950000000003
H      36.018850000000000     41.662500000000001     38.951650000000001
H      37.176450000000003     41.791300000000000     37.306150000000002
H      35.854250000000008     40.731999999999999     37.487550000000006
H      39.722650000000002     40.576799999999992     38.900250000000000
H      39.104849999999999     41.656399999999998     37.536750000000005
H      38.298749999999998     41.746499999999990     39.574950000000001
H      38.515250000000009     39.156999999999996     45.143549999999991
H      39.480950000000007     37.472999999999999     45.783849999999994
H      38.651449999999997     35.128799999999998     31.400750000000002
H      38.174149999999997     36.028399999999998     30.216150000000006
O      35.853949999999998     41.237199999999994     33.042850000000001
O      38.190350000000009     39.677999999999990     42.437450000000005
