10

C      37.394399999999990     37.666209999999992     37.074900000000000
C      38.638599999999997     37.742509999999996     37.958900000000000
C      38.436100000000010     38.485442000000006     39.309799999999996
H      37.429599999999994     38.402676000000014     36.190799999999996
H      36.508700000000005     38.059492000000006     37.675799999999995
H      37.568500000000000     36.576709999999991     36.538700000000006
H      38.913400000000010     36.610509999999991     38.070499999999996
H      39.491299999999995     38.258646000000013     37.298299999999998
H      37.689000000000007     37.880510000000001     39.809200000000004
H      38.951500000000010     39.423290000000009     39.734899999999996
