50

C      39.094699999999989     33.577099999999994     38.807034999999985
C      41.620599999999996     37.219400000000000     39.055134999999986
C      42.016499999999994     36.045199999999994     39.693063059999993
C      42.342699999999994     34.952300000000001     40.307755999999998
C      37.257999999999996     36.068600000000004     37.064234999999989
C      37.748400000000004     35.374700000000004     38.207034999999983
C      40.538200000000003     39.684300000000000     37.646634999999982
C      40.471999999999994     39.401399999999995     39.097434999999983
C      37.454999999999998     37.498300000000000     36.840034999999993
C      38.703500000000005     36.462499999999991     39.093834999999991
C      39.599599999999995     38.968399999999995     36.764634999999991
C      40.465299999999999     37.995600000000003     39.627534999999988
C      38.872900000000001     37.843100000000000     37.412234999999988
C      39.322599999999994     37.396100000000004     38.692634999999989
C      35.901300000000006     35.734300000000005     36.574334999999984
C      35.473100000000002     34.532499999999999     36.839134999999992
C      36.625100000000003     33.593200000000003     37.468734999999988
C      37.695899999999995     34.028899999999993     38.343934999999995
C      41.318799999999996     40.879899999999999     37.147634999999987
C      40.972099999999998     42.156500000000001     38.114334999999990
C      40.640299999999996     41.930199999999999     39.359434999999984
C      40.493899999999996     40.600600000000000     39.924179999999993
C      35.181799999999996     36.737000000000002     35.712634999999985
C      33.946600000000004     36.263700000000000     35.347834999999982
C      33.432000000000002     34.905000000000001     35.474034999999994
C      34.368200000000002     34.019300000000001     36.029234999999993
C      35.472999999999985     38.212200000000003     35.625334999999986
C      36.657499999999999     38.477300000000000     36.244734999999984
H      39.453100000000006     33.938800000000001     39.866859000000005
H      39.571999999999989     32.704899999999995     38.478434999999976
H      39.977400000000003     34.069499999999998     38.427834999999988
H      42.220699999999994     37.443899999999999     38.128334999999986
H      43.290000000000006     34.384599999999992     39.997569000000006
H      41.854299999999995     34.595100000000002     41.232265000000005
H      37.501599999999996     41.248799999999996     36.521734999999978
H      38.499499999999998     36.053899999999999     40.214447999999997
H      39.738399999999999     39.007699999999993     35.657734999999995
H      40.389499999999984     37.941899999999997     40.718244999999989
H      36.051500000000004     32.891500000000001     38.241334999999985
H      36.848399999999998     33.138000000000005     36.471334999999989
H      42.348699999999994     40.474800000000002     37.395034999999986
H      40.647199999999984     43.295100000000005     37.900134999999985
H      40.270399999999995     42.889099999999992     39.787423899999993
H      40.981600000000000     40.839199999999998     40.998515000000005
H      33.062599999999996     36.826399999999992     35.255734999999994
H      32.709999999999994     34.512000000000000     34.767734999999995
H      34.363399999999999     32.919699999999999     36.003134999999993
H      34.949500000000000     38.795199999999994     34.981934999999986
H      41.440199999999990     41.156800000000004     35.965934999999995
S      36.396100000000004     40.537999999999997     36.652834999999989
