36

C      35.736949999999986     37.432949999999991     37.754549999999995
C      40.631539999999994     36.088050000000010     37.589449999999999
C      36.637549999999990     36.322249999999997     37.700150000000008
C      39.209222000000004     35.815250000000006     37.584650000000011
C      36.249649999999995     38.710850000000008     38.108649999999997
C      41.046310000000005     37.349649999999997     37.921950000000010
C      38.543350000000004     40.224150000000009     38.197350000000000
C      39.922900000000013     39.794250000000005     37.840650000000011
C      38.159949999999995     36.699250000000006     37.622550000000004
C      37.649349999999998     39.105750000000000     38.181550000000001
C      40.024920000000002     38.464550000000003     37.926749999999998
C      38.581649999999996     37.956450000000004     38.097750000000005
C      36.253050000000002     34.959649999999996     37.603949999999998
C      37.233949999999993     33.975350000000006     37.478050000000010
C      38.507549999999995     34.475350000000006     37.213449999999995
C      41.016230000000007     40.797350000000009     37.337550000000007
C      37.755849999999995     41.355050000000006     38.803349999999995
C      34.235950000000003     37.344250000000002     37.483350000000002
C      41.116000000000000     41.704350000000005     38.134149999999991
H      35.474549999999994     39.563150000000007     37.812350000000009
H      42.090050000000012     37.498150000000010     38.015450000000001
H      35.305449999999993     34.549750000000003     37.796950000000010
H      39.490249999999996     33.922350000000009     37.010350000000003
H      36.872549999999997     32.938850000000002     37.364249999999998
H      41.274930000000005     34.725250000000003     39.119550000000004
H      41.279160000000005     40.664149999999992     36.238050000000001
H      40.640330000000006     41.894450000000006     39.036150000000006
H      36.831450000000004     41.422749999999994     38.261650000000003
H      37.581949999999992     40.914550000000006     39.761949999999999
H      38.242249999999991     42.436949999999996     39.169449999999998
H      33.909949999999988     38.048050000000003     38.388949999999994
H      33.915649999999999     36.411749999999998     37.965850000000003
H      34.049049999999994     37.350850000000008     36.387550000000005
H      41.830449999999999     42.941649999999996     36.763950000000008
O      41.455980000000004     35.173950000000005     38.306449999999998
O      41.309719999999999     43.061149999999998     37.631450000000001
