5

C      38.081739999999996     38.036100000000005     38.060949999999991
H      38.563500000000005     37.334699999999998     38.866450000000000
H      37.289259999999999     38.665300000000002     38.724849999999996
H      38.752089999999995     37.762200000000007     37.133550000000000
H      37.247910000000005     37.544499999999999     37.545949999999991
