38

C      37.416349999999994     39.964236000000000     36.013749999999995
C      39.535249999999998     33.800184999999999     38.815849999999990
C      36.623950000000001     38.736285000000009     35.798749999999998
C      38.618950000000005     33.960685000000019     37.849350000000001
C      38.820450000000001     39.990623000000006     36.171549999999989
C      40.311050000000002     35.002585000000018     38.942650000000000
C      37.519849999999998     37.600685000000006     36.078649999999989
C      38.432349999999992     35.240984999999995     37.193649999999984
C      41.020450000000004     37.314485000000005     39.462149999999994
C      39.413150000000002     38.817485000000005     36.735249999999986
C      40.331149999999994     36.386285000000015     38.467050000000000
C      38.603050000000003     37.630485000000007     36.986449999999984
C      39.191549999999992     36.400785000000013     37.604450000000000
C      37.149950000000004     36.276085000000002     35.688449999999989
C      36.629750000000001     41.130085000000008     35.885350000000003
C      35.434149999999995     41.192385000000009     35.461950000000002
C      34.752750000000006     39.983792000000001     34.997949999999989
C      35.309950000000001     38.776385000000005     35.407950000000000
C      40.473750000000003     37.229684999999989     40.889549999999993
C      39.797750000000001     41.180185000000009     36.423249999999996
H      40.020049999999998     32.900284999999990     39.200449999999982
H      35.147550000000003     43.099715000000010     36.019350000000003
H      42.117849999999997     37.034185000000008     39.461249999999993
H      38.036049999999996     32.963985000000015     37.591749999999990
H      40.535550000000001     38.498785000000005     36.823650000000001
H      41.213750000000005     34.928584999999998     39.690449999999991
H      40.527450000000002     38.473884999999996     38.975249999999996
H      36.285750000000000     36.469384999999988     34.935850000000002
H      37.036350000000006     42.247085000000006     36.283450000000002
H      33.882150000000003     40.125093000000007     34.379350000000002
H      34.692250000000001     37.727885000000015     35.536850000000001
H      41.222950000000004     37.742885000000008     41.620649999999998
H      39.711550000000003     41.473665000000004     37.564250000000001
H      40.558050000000001     41.098675000000007     35.692949999999989
H      39.352050000000006     42.328465000000008     36.119050000000001
N      37.395050000000005     35.196785000000013     36.345349999999996
O      39.330249999999999     37.651285000000016     40.939949999999996
O      34.648450000000004     42.297915000000003     35.577549999999995
