5

C      38.365499999999997     37.740600000000001     37.985249999999994
H      37.273600000000002     37.438500000000005     38.092849999999999
H      38.726399999999998     37.430399999999999     38.986949999999993
H      38.429199999999994     37.278000000000006     37.013050000000007
H      37.975700000000003     38.721999999999994     37.550850000000011
