63

C      39.412000000000006     39.775849999999991     34.208199999999991
C      40.776799999999994     39.920650000000002     34.770300000000006
C      38.271799999999999     39.390550000000005     34.982600000000005
C      41.871300000000005     40.507950000000001     36.964199999999991
C      37.189400000000006     36.742049999999999     40.661399999999986
C      42.058599999999998     39.969650000000001     38.232300000000009
C      38.583500000000001     36.549950000000003     40.751700000000000
C      40.819100000000006     37.629550000000002     40.641999999999996
C      36.023799999999994     36.372350000000004     38.358699999999999
C      36.255799999999994     37.169049999999999     36.891700000000000
C      40.737200000000001     40.031450000000000     36.206500000000005
C      37.065500000000000     36.926549999999999     39.095399999999998
C      41.412599999999998     38.875450000000001     38.993899999999996
C      39.666499999999999     37.266550000000002     39.924099999999996
C      38.500900000000001     38.958250000000000     36.309799999999996
C      37.434200000000004     37.952249999999999     36.949499999999986
C      39.780100000000004     39.109050000000003     36.740899999999996
C      37.918800000000005     37.669650000000004     38.168800000000005
C      40.319599999999994     38.550149999999995     38.053199999999990
C      39.237300000000005     37.914850000000001     38.711499999999987
C      39.242900000000006     39.885749999999994     32.683099999999996
C      40.299499999999995     39.983550000000001     31.848300000000005
C      41.681399999999996     40.096449999999997     32.547099999999986
C      41.933199999999999     39.952249999999992     33.887500000000003
C      36.093000000000004     36.893649999999994     41.552299999999988
C      36.334999999999994     36.463650000000001     42.960399999999993
C      37.708299999999994     36.308650000000000     43.207299999999989
C      38.713700000000003     36.281950000000002     42.189300000000003
C      34.729200000000006     37.204850000000000     41.120199999999997
C      35.084999999999994     35.372750000000003     38.600999999999985
C      40.181500000000000     35.824850000000005     42.559500000000000
C      40.634600000000006     35.939950000000003     43.850899999999996
C      37.016900000000007     38.901750000000000     34.319900000000004
C      35.559100000000001     36.800249999999998     35.829099999999997
C      35.458200000000005     36.516550000000002     44.108900000000006
C      33.975899999999996     37.060549999999999     43.782600000000002
C      34.482299999999995     36.559049999999999     35.071100000000001
C      33.819400000000002     36.929250000000003     42.266199999999998
H      42.606200000000001     41.172549999999994     36.694299999999998
H      43.187100000000001     40.517650000000003     38.429100000000005
H      38.125100000000003     39.767949999999999     32.422300000000007
H      40.270600000000002     39.913049999999998     30.806400000000000
H      42.632099999999994     40.113550000000004     32.136400000000009
H      38.124499999999998     36.205050000000000     44.345599999999990
H      34.275199999999998     36.732750000000003     40.199300000000008
H      34.491500000000002     34.827449999999999     37.815700000000007
H      34.872900000000001     34.915250000000000     39.509799999999998
H      40.543400000000005     35.175049999999999     41.780500000000004
H      40.393000000000001     35.375850000000000     44.791899999999998
H      41.728999999999999     35.684149999999995     43.897300000000001
H      40.794300000000007     37.382249999999999     41.754799999999989
H      36.537300000000002     39.661450000000002     33.658900000000003
H      36.148200000000003     38.595249999999993     34.846099999999993
H      33.223900000000000     36.744350000000004     44.376199999999997
H      43.151600000000002     40.894949999999994     34.874099999999999
H      34.538600000000002     36.425249999999998     34.052999999999997
H      33.966300000000004     35.532350000000001     35.001100000000008
H      37.291799999999995     38.131950000000003     33.288499999999999
H      32.812899999999999     36.548150000000000     41.881399999999999
H      34.030699999999996     38.193150000000003     44.125100000000003
N      41.696799999999996     38.501249999999999     40.288700000000006
O      35.958699999999993     36.661349999999999     45.193600000000004
O      43.146699999999996     40.106250000000003     34.545199999999994
