30

C      40.189594999999990     37.755164999999991     35.301899999999989
C      40.356094999999989     39.097565000000003     35.721800000000002
C      35.704315000000001     37.369565000000009     37.474199999999982
C      36.181435000000000     38.371165000000005     38.281099999999995
C      39.119094999999994     36.868465000000000     35.819500000000005
C      39.265095000000002     39.550764999999998     36.543099999999995
C      36.727505000000001     36.823965000000001     36.599000000000004
C      37.302695000000000     39.385565000000000     37.759599999999992
C      37.928294999999999     37.555165000000002     36.258499999999998
C      38.268695000000001     38.750364999999988     36.817699999999988
C      39.066595000000000     35.490965000000003     35.366699999999994
C      37.695694999999994     35.037464999999997     35.363699999999994
C      36.578795000000000     35.488465000000005     36.105499999999992
C      39.160595000000001     40.940365000000000     37.151499999999999
C      37.723794999999996     40.729765000000000     37.943399999999983
C      35.967244999999998     38.017665000000008     40.801800000000000
C      35.884484999999998     38.720365000000001     39.404699999999991
H      35.185634999999998     37.536065000000008     41.189700000000002
H      41.018694999999994     37.318065000000004     34.601299999999995
H      41.245995000000001     39.635465000000011     35.489499999999992
H      34.754004999999999     36.913965000000005     37.643899999999988
H      39.884594999999990     35.183665000000005     34.790700000000001
H      37.723094999999994     34.008034999999992     34.926900000000003
H      35.740324999999991     34.881865000000005     36.171199999999999
H      39.990494999999996     40.940065000000004     37.949599999999990
H      39.230995000000000     41.991965000000008     37.095500000000001
H      37.062094999999999     41.407065000000003     38.445400000000006
H      35.653585000000000     38.905364999999989     41.398700000000005
H      36.873144999999994     37.408965000000009     41.092499999999987
H      35.081294999999990     39.586964999999992     39.151600000000002
