20

C      38.084190500000005     39.919850000000011     38.454700000000003
C      39.101890499999996     38.997050000000009     38.013100000000001
C      38.848190500000001     37.746350000000014     37.255400000000002
C      37.463490499999992     37.299750000000010     37.157200000000010
C      36.717490499999997     38.354350000000018     37.100200000000008
C      36.834990500000004     39.526150000000008     37.926099999999998
C      37.099590500000005     35.846650000000018     37.025199999999998
C      35.734490499999993     35.637750000000004     37.165500000000002
C      40.097690499999999     37.108650000000004     36.807499999999997
H      36.183190499999995     40.243850000000009     37.813700000000004
H      34.870590499999992     36.401050000000005     36.982800000000005
H      35.350890500000006     34.527850000000001     37.310499999999998
H      38.841790500000002     35.038150000000009     37.549600000000005
H      40.983610500000012     38.802550000000018     38.112299999999998
H      37.698190499999995     41.472150000000006     39.781500000000001
O      38.136890499999993     34.883750000000013     37.017399999999995
O      41.129409500000008     36.646850000000008     36.560700000000004
O      40.354357500000006     39.511250000000011     38.073500000000003
O      35.931690500000002     38.596250000000005     36.218499999999999
O      38.165290499999998     40.855550000000008     39.416000000000004
