6

C      38.143249999999995     37.660349999999994     38.357349999999997
H      38.241050000000001     38.771050000000002     38.407249999999991
H      39.195549999999997     37.239149999999995     38.270549999999993
H      37.545950000000005     37.228949999999998     39.132550000000002
H      36.804450000000003     37.935549999999992     36.894649999999992
O      37.762349999999998     37.516450000000006     36.867449999999998
