39

C      37.717689999999990     39.870319999999992     38.938649999999996
C      37.203800000000001     38.520350000000001     38.795549999999992
C      36.867469999999997     34.513150000000003     41.660250000000005
C      39.061340000000001     35.643140000000002     40.706750000000000
C      36.458759999999998     37.935890000000001     39.967649999999992
C      37.227770000000007     34.285823999999998     40.300150000000002
C      36.638270000000006     35.859360000000002     41.859250000000003
C      37.693659999999994     35.637170000000005     39.914150000000006
C      36.813090000000003     36.601520000000001     40.572249999999997
C      38.142209999999992     40.397370000000002     37.741050000000001
C      37.870829999999998     39.712679999999999     36.550650000000005
C      37.790850000000006     38.263520000000000     36.535950000000000
C      37.624340000000004     37.693949999999994     37.734850000000009
C      38.628920000000008     42.501150000000003     36.680849999999992
C      38.252139999999997     42.217170000000003     35.288150000000002
C      38.056750000000008     40.656059999999997     35.430949999999996
C      37.330250000000007     40.124369999999999     34.315349999999995
C      37.864230000000006     32.946250000000006     39.830449999999999
C      38.121570000000006     40.105770000000000     40.326450000000008
C      39.818250000000006     35.751780000000004     41.638249999999999
H      36.749539999999996     33.650131999999999     42.458249999999992
H      37.036280000000005     32.362150000000000     39.449849999999998
H      35.260820000000010     37.977899999999998     40.420950000000005
H      35.768259999999998     35.899050000000003     42.508449999999996
H      38.332419999999999     37.848820000000003     35.548450000000003
H      38.732610000000008     43.637850000000000     37.003650000000007
H      38.931260000000009     42.888239999999996     34.661550000000005
H      37.097970000000004     39.175890000000003     34.367350000000002
H      36.821709999999996     40.582680000000003     33.491550000000004
H      37.210310000000007     42.591159999999995     35.189750000000004
H      38.517600000000002     33.409778000000003     38.901749999999993
H      38.222409999999996     32.526350000000008     40.929450000000003
H      40.097080000000005     39.379049999999999     40.647049999999993
H      38.872900000000001     41.095510000000004     40.219149999999999
H      37.576490000000007     39.767609999999998     41.265749999999997
H      40.739179999999990     34.941800000000001     41.272149999999996
N      38.556170000000009     41.683790000000002     37.648849999999996
O      39.255390000000006     39.047750000000001     40.512050000000002
S      37.891099999999994     35.806789999999999     37.694050000000004
