45

C      40.219749999999998     39.239999999999995     38.245149999999995
C      40.902310000000007     38.170099999999991     37.463850000000008
C      36.250679999999996     36.091700000000003     38.832449999999994
C      37.156650000000006     34.864199999999997     38.522250000000014
C      38.956030000000005     38.869900000000001     38.863750000000010
C      40.205800000000004     36.961799999999997     37.144950000000009
C      37.095600000000005     37.316999999999993     38.985450000000014
C      38.494430000000008     35.189499999999995     37.835049999999995
C      38.277470000000008     37.586199999999991     38.468549999999993
C      39.095089999999999     36.459199999999996     37.988950000000003
C      40.754340000000006     40.654399999999995     38.347350000000006
C      41.883440000000007     40.891399999999990     37.603850000000008
C      42.397169999999996     39.784199999999998     36.971250000000012
C      42.080510000000004     38.362600000000000     36.706450000000004
C      37.393740000000008     39.665399999999991     37.164850000000001
C      37.917619999999999     39.884299999999996     38.321550000000002
C      40.320500000000003     42.126300000000001     38.847250000000003
C      34.813910000000007     36.311999999999998     38.547250000000005
C      34.558090000000007     35.590099999999993     37.131250000000009
C      32.960799999999999     34.958299999999994     37.429550000000006
C      40.465409999999999     42.349099999999993     40.207450000000009
C      38.823430000000002     34.440299999999993     36.569450000000003
C      38.338800000000006     33.114699999999999     36.287350000000004
H      36.613220000000005     33.929999999999993     38.080850000000012
H      40.416930000000001     36.510899999999992     36.057150000000007
H      36.941699999999997     38.293799999999990     39.436150000000012
H      37.523840000000007     34.493299999999991     39.549949999999995
H      42.254539999999999     41.947900000000004     37.291650000000004
H      43.479299999999995     40.178600000000003     36.533050000000003
H      42.740160000000003     37.594399999999993     36.265750000000011
H      37.697480000000006     38.807099999999991     36.553450000000012
H      36.866180000000007     40.019399999999990     36.253850000000014
H      37.338220000000007     40.588099999999997     38.967750000000009
H      34.790379999999999     36.137699999999995     36.254650000000012
H      34.729680000000002     34.422600000000003     37.521250000000009
H      32.873100000000008     35.054299999999998     36.317149999999998
H      32.967900000000000     33.981099999999998     38.158650000000009
H      32.520700000000005     35.642699999999991     38.389550000000014
H      40.459240000000001     43.444000000000003     40.399650000000008
H      41.008640000000000     41.235299999999995     40.677849999999992
H      40.071180000000005     42.820200000000000     38.331250000000011
H      39.252890000000001     34.691000000000003     35.556450000000012
H      37.464810000000007     32.966499999999996     36.714450000000014
H      38.629250000000006     32.555999999999997     35.322150000000008
O      33.966487999999998     36.893799999999999     39.227350000000001
