8

C      37.640950000000004     38.586399999999990     38.110249999999994
C      38.425550000000001     37.303299999999993     38.100949999999997
H      37.921449999999993     36.511800000000001     38.435149999999993
H      36.947749999999999     38.789299999999997     37.017049999999998
H      38.265649999999994     39.488199999999999     37.890449999999987
H      38.723249999999993     37.301000000000002     37.000850000000000
H      37.084850000000003     39.057999999999993     38.999150000000000
H      39.052250000000001     37.795399999999994     38.922150000000002
