5

C      37.966849999999994     37.919599999999996     38.353799999999993
H      37.648450000000004     37.420600000000007     37.286600000000000
H      37.479650000000007     38.807299999999998     37.707000000000001
H      37.237250000000003     37.192700000000002     38.670399999999994
H      38.762749999999997     38.515400000000000     38.713400000000000
