6

C      37.154849999999996     37.734749999999998     37.973649999999999
C      38.343149999999994     37.524350000000005     38.298549999999999
H      39.114949999999993     37.808650000000007     39.082850000000001
H      36.621350000000007     38.630649999999996     38.655050000000003
H      39.378649999999993     37.369350000000004     37.775750000000002
H      36.849449999999990     37.557749999999999     36.917149999999999
