6

C      37.099499999999992     38.061349999999990     37.915350000000004
H      37.814599999999992     37.913750000000007     36.932350000000000
H      36.695699999999995     37.029250000000005     38.123249999999999
H      36.322600000000001     38.970749999999995     37.607450000000000
H      39.677399999999999     37.487949999999998     38.739649999999997
S      38.549299999999988     38.286449999999988     39.067650000000000
