6

C      37.757399999999990     37.465187499999985     38.224299999999992
C      38.314200000000000     38.571865500000001     37.635700000000000
H      36.645600000000002     37.637435499999995     38.748800000000003
H      38.401600000000002     36.605174500000004     38.154399999999995
H      37.756799999999998     39.394825499999996     37.251199999999997
H      39.354399999999998     38.633605500000002     37.451700000000002
