6

C      38.094699999999989     38.643209999999996     37.886929999999992
H      38.825400000000002     38.985809999999994     38.443299999999994
H      38.094999999999999     38.997409999999995     36.848399999999998
H      37.170900000000003     39.337609999999998     38.024290000000008
H      38.829099999999997     36.843889999999995     39.151600000000002
S      37.799099999999996     36.662390000000002     38.282260000000008
