5

C      38.080114999999992     37.860100000000003     38.082650000000001
H      37.996105000000000     37.140500000000003     37.298950000000005
H      37.010565000000000     37.994300000000010     38.701049999999995
H      37.892735000000002     38.859499999999997     37.762450000000001
H      38.989435000000000     37.304900000000004     38.687049999999999
