84

C      36.834169999999986     35.081049999999991     38.170499999999997
C      36.008269999999996     34.811750000000004     37.062700000000000
C      36.287970000000001     30.399049999999999     39.287700000000001
C      37.153369999999981     34.074350000000010     39.098600000000005
C      35.362870000000001     33.365350000000007     37.310900000000004
C      36.829369999999983     31.389650000000000     40.090200000000003
C      36.632270000000005     32.823549999999997     39.383900000000004
C      35.886369999999999     32.385850000000005     38.276200000000003
C      37.759569999999997     36.196449999999999     37.953200000000002
C      37.791570000000007     36.892049999999998     36.628100000000003
C      36.872770000000003     36.521349999999998     35.507099999999994
C      35.835270000000008     35.639750000000006     35.859400000000001
C      38.886279999999999     36.507149999999996     38.771100000000004
C      39.598350000000011     37.755049999999997     38.887999999999998
C      39.217420000000004     38.480150000000009     37.798400000000001
C      38.613907000000012     38.113250000000008     36.618700000000004
C      38.290656000000013     34.297550000000001     39.909099999999995
C      39.147880000000001     35.320350000000005     39.777999999999999
C      40.145990000000012     38.541950000000000     40.119799999999998
C      38.863703000000001     39.077750000000009     35.531699999999994
C      34.095770000000002     33.518650000000008     36.883899999999997
C      37.908370000000005     31.246649999999999     40.953900000000004
C      39.978890000000007     43.804850000000002     40.654899999999991
C      38.782589999999999     44.448749999999990     40.259900000000002
C      40.853070000000002     41.699949999999987     35.819099999999999
C      39.596940000000004     42.342650000000006     35.564599999999999
C      40.489210000000000     42.743549999999999     39.736899999999999
C      38.468483000000006     44.168050000000008     38.827600000000004
C      40.948720000000009     41.712249999999997     37.306200000000004
C      38.756411000000000     43.041449999999998     36.560000000000002
C      40.335530000000006     42.486149999999995     38.280100000000004
C      39.115238000000005     43.396150000000006     37.886099999999999
C      40.229530000000011     44.021049999999988     42.013200000000005
C      39.432010000000005     44.959849999999989     42.909999999999997
C      38.307507999999999     45.722549999999998     42.323799999999999
C      37.908969999999997     45.349650000000011     40.970800000000004
C      41.464269999999999     40.611450000000005     35.036500000000004
C      40.675800000000010     40.262149999999991     33.960300000000004
C      39.578729999999993     41.025250000000000     33.288100000000000
C      39.064081999999999     42.090050000000005     34.167000000000002
C      41.124870000000001     43.108449999999991     42.719000000000001
C      41.191350000000000     43.223650000000006     44.150700000000001
C      39.388280000000009     44.633850000000010     44.274399999999993
C      41.714950000000002     42.132750000000001     41.739299999999993
C      41.200950000000006     41.754550000000009     40.362800000000000
C      41.652370000000005     40.655650000000009     39.469300000000004
C      40.385600000000011     39.817450000000008     39.308399999999999
C      37.135570000000001     44.688250000000011     38.441600000000001
C      36.561369999999997     45.756550000000004     39.040599999999998
C      36.652770000000004     45.942449999999994     40.442900000000002
C      39.199249999999992     41.186550000000011     31.737099999999998
H      42.595620000000011     41.561149999999998     41.538099999999993
H      41.398470000000003     40.684950000000001     37.276699999999998
H      42.699730000000002     40.447550000000007     38.936899999999994
H      39.588610000000003     40.429149999999993     39.695300000000003
H      37.312269999999984     44.855150000000009     37.381399999999999
H      36.074870000000004     46.619950000000003     38.488100000000003
H      36.052369999999982     46.478750000000005     41.190100000000001
H      38.176368400000001     41.637450000000001     31.438600000000001
H      38.099869999999996     42.620350000000002     33.880099999999999
H      36.115670000000009     29.380050000000001     39.683900000000001
H      37.065769999999986     37.126750000000001     34.506999999999998
H      40.155419999999992     35.505350000000007     40.448799999999999
H      38.471906000000004     33.679550000000006     40.728799999999993
H      40.937170000000009     37.844650000000001     40.700000000000003
H      39.497360000000000     39.178750000000008     40.737300000000005
H      39.545710000000000     39.910950000000000     35.480499999999999
H      33.300269999999998     32.761850000000010     37.129499999999993
H      33.635570000000001     34.517450000000011     36.484099999999998
H      34.306570000000008     36.322350000000000     34.991100000000003
H      38.129069999999999     30.243449999999999     41.473500000000001
H      38.737787000000012     31.916650000000001     41.385200000000005
H      38.187516299999999     43.634349999999998     35.842900000000000
H      37.781670000000005     46.498150000000010     43.011499999999998
H      42.305949999999996     40.011749999999992     35.364400000000003
H      41.186779999999999     39.317650000000000     33.483400000000003
H      41.991170000000011     42.850749999999991     44.884200000000000
H      38.574438999999998     44.959150000000008     45.006899999999995
N      35.613770000000002     31.043350000000000     38.356799999999993
N      40.243670000000009     43.774049999999988     44.848199999999999
O      38.223220800000007     39.225450000000009     34.505499999999998
O      39.808370000000011     39.673850000000002     37.776600000000002
O      34.762770000000003     35.465449999999990     35.014200000000002
O      40.097010000000012     40.911349999999999     30.993100000000005
