6

C      38.489499999999992     37.496849999999988     38.137259999999991
C      37.213200000000001     37.971949999999993     37.722160000000002
H      38.647599999999997     37.693049999999999     39.219859999999997
H      39.261000000000003     36.960749999999997     37.406559999999999
H      36.738999999999997     37.983849999999997     36.780140000000003
H      37.165500000000002     39.039250000000003     37.772559999999999
