42

C      37.610799999999998     38.977499999999992     37.479349999999997
C      36.337499999999991     38.521200000000007     36.799649999999986
C      38.312299999999993     34.390700000000010     38.009249999999994
C      38.588499999999996     38.062399999999997     37.897750000000002
C      35.977699999999999     37.157200000000003     37.284149999999997
C      39.150700000000001     35.507199999999997     38.200949999999992
C      37.054999999999993     34.843299999999999     37.445949999999996
C      38.369599999999991     36.618499999999997     37.798050000000003
C      37.070999999999998     36.276600000000002     37.186650000000000
C      37.735500000000002     40.404399999999995     37.413950000000000
C      37.215499999999992     40.977800000000002     36.112449999999995
C      36.070799999999991     40.398700000000005     35.406350000000003
C      35.632800000000003     39.084900000000005     35.736249999999998
C      38.856700000000004     41.002599999999987     38.043849999999992
C      39.190200000000004     42.387899999999988     37.745949999999993
C      38.603399999999993     42.831100000000006     36.451449999999994
C      37.813599999999994     42.209599999999995     35.507049999999992
C      39.813800000000001     40.095500000000001     38.796149999999997
C      39.704899999999995     38.650099999999995     38.621250000000003
C      40.571899999999999     40.271100000000004     39.987349999999992
C      40.264200000000002     41.483300000000000     40.554850000000002
C      34.545100000000005     37.007800000000003     37.857950000000002
C      38.522099999999995     32.866900000000001     38.069450000000003
H      42.011899999999997     39.855300000000000     41.133049999999997
H      39.342900000000000     32.776800000000009     38.809449999999998
H      40.178399999999996     35.594400000000007     38.722149999999999
H      36.105099999999993     34.369799999999998     37.292450000000002
H      36.043899999999994     41.172100000000000     34.565049999999999
H      40.028700000000001     43.058500000000009     38.344249999999988
H      38.871099999999998     43.887400000000000     36.160650000000004
H      37.606099999999998     42.701800000000006     34.497550000000004
H      40.408799999999999     38.117000000000004     39.190950000000001
H      39.475099999999998     42.181300000000007     40.032950000000000
H      40.630399999999995     41.497300000000010     41.502449999999996
H      34.989599999999996     37.576900000000009     35.021349999999998
H      34.325500000000005     37.488600000000005     39.039450000000002
H      34.270200000000003     35.940800000000010     37.697350000000000
H      33.988100000000003     37.568600000000004     36.902649999999994
H      37.599999999999994     32.112600000000000     38.245149999999995
H      38.996600000000001     32.457700000000003     37.124549999999999
O      41.333699999999993     39.302100000000010     40.605249999999998
O      35.051000000000002     38.516100000000009     34.635450000000006
