9

C      37.143839999999997     38.256849999999993     38.209349999999993
C      38.260490000000004     38.999149999999993     37.398949999999999
C      37.451689999999999     36.962850000000003     38.606150000000000
H      36.832030000000003     36.159150000000004     39.622550000000004
H      38.341880000000003     38.792349999999992     36.377449999999996
H      38.107159999999993     39.840849999999996     37.973450000000000
H      39.318680000000001     38.868450000000003     37.687049999999999
H      36.681319999999999     38.900950000000002     38.786149999999999
H      38.426100000000005     36.640150000000006     38.307249999999996
