96

C      35.617750000000001     32.044249999999991     43.795584999999988
C      36.062449999999998     32.572049999999990     42.510684999999995
C      41.904249999999990     41.034749999999988     41.456985000000003
C      35.475350000000006     32.729250000000008     45.063085000000001
C      41.502549999999999     41.710349999999991     42.567485000000005
C      41.362250000000003     39.660249999999991     41.246984999999995
C      36.935850000000002     33.662749999999988     42.484385000000003
C      39.675049999999999     41.165949999999995     44.700885000000000
C      39.303150000000002     40.013649999999998     45.414685000000006
C      36.231749999999991     35.207249999999988     45.874885000000006
C      39.368250000000003     38.066950000000006     42.048085000000000
C      37.800850000000011     36.410349999999994     42.838784999999987
C      37.817550000000011     37.485749999999996     45.617685000000009
C      40.681049999999999     40.966750000000005     43.661685000000006
C      36.262550000000005     33.886150000000001     45.165584999999993
C      40.482750000000010     38.954250000000002     42.165185000000008
C      37.247550000000004     36.175949999999986     45.327084999999997
C      38.722750000000005     37.399349999999998     43.117685000000009
C      36.797150000000002     34.351749999999996     43.821084999999997
C      39.742049999999992     38.882249999999999     44.533084999999986
C      37.160749999999993     35.726149999999990     43.936584999999994
C      38.827950000000001     37.809749999999994     44.550984999999997
C      40.588250000000002     39.561949999999996     43.508785000000003
C      37.320949999999996     34.264550000000000     41.189485000000005
C      37.783649999999994     35.580349999999996     41.512784999999994
C      38.461550000000003     36.314549999999997     40.519385000000000
C      39.276349999999994     37.534250000000000     40.615085000000008
C      40.096949999999993     38.246249999999989     39.726585000000000
C      41.185350000000000     39.115049999999997     39.881185000000002
C      34.920450000000002     30.780749999999994     43.556584999999998
C      34.692750000000004     30.141850000000002     42.361885000000001
C      35.129550000000009     30.762849999999997     41.251085000000003
C      35.977249999999998     31.950050000000001     41.168785000000000
C      36.720150000000004     32.255449999999996     39.961785000000006
C      37.152950000000004     33.650050000000007     39.924284999999998
C      38.568550000000002     39.539449999999988     46.768684999999991
C      37.511350000000007     38.205750000000009     46.799784999999986
C      34.697350000000000     32.133949999999999     46.213385000000002
C      36.665850000000006     37.697749999999999     47.760585000000006
C      39.730750000000000     40.791349999999994     35.773584999999997
C      39.015950000000004     43.718649999999997     29.510624999999997
C      38.672250000000005     41.696750000000009     35.457084999999992
C      38.563550000000006     44.676550000000006     30.456994999999999
C      40.697450000000003     40.736549999999994     34.642184999999998
C      39.915250000000000     42.698949999999996     29.752594999999999
C      38.715949999999992     42.723150000000004     34.464684999999996
C      38.766850000000005     44.206450000000004     31.839174999999997
C      40.714249999999993     40.952849999999998     31.902535000000000
C      40.344549999999998     41.135749999999987     33.298384999999996
C      40.605350000000001     42.382149999999996     30.995304999999998
C      39.413049999999998     42.287449999999993     33.245484999999995
C      39.597949999999997     43.024450000000002     32.053624999999997
C      38.235450000000000     44.070949999999996     34.253785000000001
C      38.038349999999994     44.627150000000000     32.973484999999997
C      39.836950000000002     40.072149999999993     36.990485000000000
C      39.004450000000006     40.549549999999996     38.107585000000000
C      38.197649999999996     41.695650000000001     37.937785000000005
C      37.929850000000002     42.108550000000008     36.600285000000000
C      40.196150000000003     41.783749999999998     28.556584999999998
C      40.829849999999993     39.627650000000003     31.642494999999997
C      37.704250000000002     45.507249999999999     30.080124999999995
C      40.934550000000002     39.022149999999996     36.969884999999998
H      38.079650000000001     35.888049999999993     39.577185000000000
H      42.370449999999991     41.663449999999997     40.763585000000006
H      41.551249999999996     42.840950000000007     42.610984999999999
H      40.081450000000004     42.058450000000008     45.336285000000004
H      36.759850000000000     34.618449999999996     46.702984999999998
H      42.015549999999990     39.277550000000005     39.263584999999992
H      34.187049999999999     30.607949999999999     44.306084999999996
H      33.945350000000005     29.482450000000004     42.352284999999995
H      34.956649999999996     30.195950000000000     40.177185000000009
H      36.616849999999999     31.818949999999997     39.023184999999998
H      37.529250000000005     34.189049999999995     39.149484999999999
H      39.195950000000011     38.902450000000002     47.497185000000002
H      37.861950000000007     40.417449999999988     46.993785000000003
H      34.851849999999999     32.682449999999989     47.232384999999994
H      36.105150000000009     36.896749999999997     47.042384999999996
H      36.328250000000011     38.303849999999997     48.616484999999997
H      38.802650000000000     44.236249999999998     28.490854999999996
H      41.680850000000007     40.152250000000009     34.967984999999999
H      37.738749999999996     44.602950000000007     35.080484999999996
H      37.536150000000006     45.640649999999994     32.705884999999995
H      39.163550000000001     39.951050000000009     39.013185000000007
H      38.154550000000000     42.504249999999999     38.690584999999999
H      37.410249999999991     43.281350000000003     36.679485000000000
H      40.401550000000000     40.670550000000006     28.821664999999996
H      40.541449999999998     39.314850000000007     30.622544999999999
H      41.023850000000010     38.764449999999997     32.481285000000000
H      37.667949999999990     46.517550000000000     30.391835000000000
H      36.895850000000010     44.807650000000010     29.660325000000000
H      41.204850000000008     38.865149999999986     35.883884999999999
H      41.959949999999992     38.932749999999999     37.300684999999994
H      41.601349999999996     42.508150000000001     30.896914999999996
O      33.629550000000009     31.634250000000005     46.104884999999996
O      40.044049999999999     41.980849999999990     27.383514999999999
S      40.111350000000002     37.638049999999993     37.930184999999994
