11

C      38.175399999999996     37.236149999999995     37.569449999999996
C      37.503200000000000     39.001650000000012     38.663149999999995
C      38.899299999999997     38.277150000000006     38.415449999999993
H      37.787099999999995     39.639049999999997     39.407150000000001
H      37.787199999999999     37.442750000000004     36.580950000000001
H      37.635100000000001     36.360950000000003     38.081350000000000
H      39.133299999999998     36.505550000000014     37.519549999999995
H      36.581499999999998     39.232650000000007     37.909750000000003
H      36.769399999999990     38.402150000000006     39.419049999999999
H      39.355100000000000     37.746350000000007     39.163649999999983
H      39.418500000000002     38.950450000000004     37.695549999999997
