36

C      41.810250000000003     40.241784499999994     40.752049999999997
C      41.419750000000008     39.544984500000005     39.626450000000006
C      34.677549999999997     38.797884500000002     36.796849999999992
C      34.399450000000002     39.923084499999995     37.546149999999997
C      39.267150000000001     39.306384500000000     38.336749999999995
C      36.076350000000005     38.318484500000004     36.576650000000001
C      35.125350000000005     40.430984500000001     38.602850000000004
C      38.229749999999996     38.665684500000005     37.506950000000003
C      37.493550000000006     40.758884500000001     38.983949999999993
C      37.038050000000005     39.336384500000001     37.062150000000003
C      36.478049999999996     40.363884500000005     38.143550000000005
C      36.230550000000001     37.100984500000003     35.753850000000000
C      37.450450000000004     36.529384499999999     36.292549999999991
C      38.427750000000003     37.248484499999996     37.082350000000005
C      37.729050000000001     35.070084500000000     36.391449999999992
C      38.647250000000007     34.346284500000003     35.363649999999993
C      38.859050000000003     40.486384500000000     39.025049999999993
C      40.638150000000010     38.994384500000002     38.648949999999999
C      36.750550000000004     41.623284500000004     40.069749999999999
H      42.584249999999997     40.210484500000000     41.475449999999995
H      41.493250000000003     41.519284500000005     41.424549999999996
H      33.415750000000003     40.179584499999997     37.639749999999992
H      34.725849999999994     41.244084500000007     39.345649999999992
H      34.143750000000004     37.008284499999995     36.396450000000002
H      35.403550000000003     36.374584500000005     35.294049999999999
H      38.303950000000000     33.461184499999995     35.135249999999999
H      39.026550000000007     36.728884499999992     37.694950000000006
H      39.737050000000004     34.243484500000001     35.673050000000003
H      38.600950000000005     34.973184499999995     34.524550000000005
H      39.656250000000007     41.180384499999988     39.623449999999991
H      41.224249999999998     38.546584500000002     37.853549999999998
H      35.995850000000004     40.983284499999996     40.614549999999994
H      37.398550000000007     41.976083500000009     40.872249999999994
H      36.105650000000004     42.538815500000005     39.823749999999990
O      37.043250000000000     34.586684499999997     37.253850000000000
O      33.801850000000002     37.877384499999998     36.543149999999997
