39

C      38.139884999999992     38.035583000000003     36.448099999999997
C      36.840284999999994     38.543399000000008     36.729500000000002
C      38.081184999999991     35.965940000000003     40.910799999999995
C      36.726184999999987     36.291240000000002     40.989100000000008
C      38.811384999999987     37.267840000000021     37.515500000000003
C      35.914184999999989     37.992123000000007     37.685400000000001
C      38.425984999999997     35.678740000000005     39.586100000000002
C      35.973084999999998     36.989640000000009     40.003500000000003
C      38.026784999999990     36.718640000000008     38.664400000000001
C      36.640484999999998     37.133940000000010     38.793400000000005
C      39.042584999999988     38.327520000000007     35.269500000000008
C      38.325484999999986     39.174830000000000     34.203100000000006
C      37.118084999999994     39.896700000000010     34.679000000000002
C      36.458884999999995     39.697400000000002     35.828600000000009
C      40.260069999999999     36.893640000000005     37.302999999999997
C      40.791376999999997     36.802040000000005     36.032300000000006
C      40.233116000000010     37.628282000000013     35.042500000000004
C      41.281455000000008     36.393640000000005     38.315100000000001
C      35.712584999999990     40.778040000000004     36.652700000000010
C      34.632084999999989     38.531970000000015     37.831500000000005
C      38.774384999999995     35.066440000000000     41.995300000000000
H      39.773584999999997     35.205040000000011     41.845399999999998
H      36.556084999999996     36.354040000000012     41.983999999999995
H      39.299184999999994     35.078040000000001     39.537700000000001
H      34.998084999999989     37.523440000000008     40.175000000000011
H      36.705584999999999     41.011840000000007     34.380600000000001
H      41.535605000000004     35.966540000000009     35.742900000000006
H      41.645965000000004     35.418240000000011     37.922300000000007
H      40.391309000000007     37.715418000000014     33.939300000000003
H      42.229515000000006     36.990540000000010     38.228000000000009
H      41.033265000000014     36.371040000000008     39.311099999999996
H      36.265684999999991     40.733609999999999     37.555000000000007
H      34.627384999999990     40.362970000000004     37.181899999999999
H      35.709384999999997     41.736159999999998     36.337600000000009
H      33.770484999999994     38.349156000000008     38.625900000000001
H      34.406084999999990     38.913090000000011     36.867099999999994
H      38.535984999999997     35.611140000000006     42.899900000000002
H      38.140084999999999     34.263840000000002     42.081200000000010
O      38.493584999999996     38.741840000000010     33.100099999999998
