5

C      38.169029999999999     38.132255000000001     37.946500000000000
H      38.781419999999997     38.760154999999997     37.154600000000002
H      37.838260000000005     38.227615000000000     38.845399999999998
H      38.717259999999996     37.239845000000003     37.961399999999998
H      37.218580000000003     38.468445000000003     37.485700000000001
