96

C      41.123674999999992     39.334599999999995     45.287299999999995
C      41.790874999999993     38.267500000000005     45.055899999999994
C      39.668974999999996     33.349599999999995     44.680199999999999
C      39.067874999999994     32.131200000000000     44.295400000000001
C      33.420674999999996     32.672300000000000     40.827799999999996
C      39.445574999999991     34.616199999999999     43.781100000000002
C      33.696174999999990     33.444900000000004     39.622800000000005
C      37.978874999999995     31.970599999999997     43.314100000000003
C      34.586674999999993     32.653700000000001     41.670400000000001
C      35.972175000000000     34.762300000000003     38.930800000000005
C      36.861375000000002     35.426900000000003     39.829900000000002
C      35.172774999999994     33.732700000000001     39.652700000000003
C      38.676674999999996     34.399300000000004     42.708500000000001
C      37.533074999999990     34.902099999999997     40.953099999999999
C      35.668675000000000     33.207499999999996     40.884700000000002
C      37.835574999999999     33.212499999999999     42.574300000000001
C      36.952575000000003     33.532199999999996     41.481000000000002
C      40.905774999999998     33.567700000000002     45.408399999999993
C      41.368374999999993     32.126500000000000     45.854299999999995
C      40.371474999999990     31.120100000000001     46.045900000000003
C      39.351975000000003     30.849399999999996     45.062000000000005
C      35.799974999999996     35.207000000000001     37.555399999999999
C      36.634274999999995     36.305300000000003     37.234400000000001
C      37.783475000000003     36.857100000000003     37.907000000000004
C      37.760174999999997     36.496500000000005     39.271200000000000
C      41.706574999999987     34.585200000000007     45.387900000000002
C      43.419495000000005     33.348900000000008     46.337100000000000
C      42.720876999999994     32.070799999999998     46.301600000000001
C      41.115074999999997     35.928400000000003     44.974200000000003
C      40.386474999999997     35.712000000000003     43.807800000000000
C      35.313974999999992     34.157100000000007     36.768500000000003
C      32.594074999999997     33.888900000000000     38.634500000000003
C      36.259875000000001     37.135899999999992     36.068199999999997
C      37.218874999999990     37.974600000000002     35.585599999999999
C      35.264874999999996     34.168600000000005     35.360100000000003
C      38.796374999999991     29.635600000000004     44.338200000000001
C      40.487274999999990     42.692900000000002     31.863900000000005
C      40.223374999999997     43.790300000000002     32.827600000000004
C      37.588275000000003     39.861400000000003     34.242800000000003
C      36.930474999999994     41.101800000000004     34.705100000000002
C      40.066474999999990     41.312799999999996     31.912200000000002
C      39.367775000000002     43.435900000000004     33.963500000000003
C      38.447474999999990     39.949099999999994     33.034200000000006
C      37.464674999999993     42.182000000000002     34.835000000000001
C      39.266374999999989     41.118899999999996     33.170699999999997
C      38.841574999999999     42.237700000000004     34.092600000000004
C      41.203874999999989     42.802300000000002     30.641900000000007
C      41.618374999999993     44.196100000000001     30.297100000000000
C      41.275675000000000     45.226599999999991     31.162700000000005
C      40.631574999999991     45.063300000000005     32.509599999999999
C      40.724174999999995     40.586699999999993     30.835300000000004
C      41.300674999999991     41.487600000000000     29.950900000000001
C      40.639175000000002     39.076799999999999     30.518000000000004
C      36.649274999999996     38.759000000000007     34.473600000000005
C      42.087874999999990     46.398500000000006     30.997300000000003
H      40.188474999999990     39.146599999999999     45.711600000000004
H      41.325875000000003     40.363499999999995     44.817700000000002
H      42.681144000000003     38.317399999999999     44.483600000000003
H      31.681374999999996     33.209600000000002     38.800600000000003
H      35.265674999999995     37.170700000000004     35.506100000000004
H      32.394674999999999     32.782299999999999     40.953299999999999
H      37.298875000000002     31.045600000000000     43.178800000000003
H      34.639374999999994     32.137699999999995     42.651400000000002
H      40.439574999999998     30.017099999999999     46.375599999999999
H      38.386874999999996     37.641399999999997     37.432900000000004
H      38.356374999999993     36.958600000000004     40.107700000000001
H      44.318625000000004     33.343000000000004     46.839299999999994
H      43.024017999999998     31.140099999999997     46.725499999999997
H      39.893374999999999     36.545099999999998     42.652000000000001
H      35.211674999999993     33.030500000000004     36.985200000000006
H      32.352574999999995     35.024800000000006     38.861000000000004
H      32.507275000000000     33.633500000000005     37.425000000000004
H      38.301274999999997     37.894500000000001     35.857999999999997
H      35.510674999999999     33.164000000000001     34.835599999999999
H      35.569174999999994     35.011400000000002     34.829000000000001
H      37.774774999999998     29.481199999999994     44.698799999999999
H      39.034474999999993     29.838199999999993     43.252299999999998
H      39.558974999999997     28.711999999999996     44.629600000000003
H      38.842075000000001     44.323700000000002     34.496900000000004
H      38.385574999999996     39.458500000000001     32.049800000000005
H      37.280875000000002     43.083900000000000     35.687400000000004
H      42.588465999999997     44.193800000000003     29.775000000000002
H      40.483775000000001     45.849999999999994     33.058200000000006
H      39.662474999999993     38.997400000000006     29.757100000000001
H      42.085574999999999     41.171900000000001     29.160700000000006
H      40.147874999999992     38.306699999999999     31.207400000000007
H      41.202874999999992     38.731299999999990     29.730500000000006
H      35.520175000000002     38.821199999999997     34.279200000000003
H      35.331474999999990     42.130100000000006     34.192100000000003
H      41.260074999999993     47.205100000000002     29.968000000000000
H      42.509040000000006     47.288000000000004     31.812500000000000
H      42.765923000000001     45.980600000000003     30.505000000000003
N      38.448374999999984     35.321600000000004     41.771300000000004
N      42.937066000000002     34.446600000000004     45.878799999999998
O      41.591474999999996     36.949700000000000     45.609999999999992
O      35.517575000000001     41.219700000000003     34.299100000000003
