52

C      36.715599999999995     35.488999999999990     36.989799999999988
C      38.078999999999994     35.750399999999992     36.678099999999986
C      38.220999999999989     43.631999999999998     38.973499999999987
C      35.758799999999994     36.589199999999991     37.160999999999987
C      39.535299999999992     43.003000000000000     39.041299999999993
C      38.503099999999989     37.091999999999992     37.107200000000006
C      37.151299999999992     42.677000000000000     39.210999999999999
C      40.314499999999995     40.727300000000000     38.264899999999997
C      39.697199999999995     39.583599999999990     37.568899999999985
C      35.323899999999995     38.911899999999989     37.966300000000004
C      39.298199999999994     41.597699999999989     38.945599999999999
C      36.239800000000002     37.824700000000000     37.522000000000006
C      37.861899999999991     41.363799999999991     39.241900000000001
C      37.695499999999996     38.163399999999996     37.515199999999993
C      38.318699999999993     39.501799999999996     37.875600000000006
C      37.403099999999995     40.187700000000000     38.590599999999995
C      39.926800000000000     37.275700000000001     36.716600000000000
C      36.049399999999991     34.157499999999999     36.956299999999999
C      37.121999999999986     33.113300000000002     36.795599999999993
C      38.460899999999995     33.311799999999998     36.513199999999998
C      39.010499999999993     34.618099999999991     36.681399999999996
C      40.288399999999996     34.946700000000000     35.991500000000002
C      40.860699999999994     36.173899999999989     36.371199999999988
C      34.142099999999999     35.303100000000001     35.824799999999996
C      34.472699999999989     36.603699999999996     36.587599999999995
C      34.576099999999997     34.159799999999997     36.912999999999997
C      40.744499999999988     43.906799999999997     38.654700000000005
C      41.636799999999994     41.070299999999996     38.566599999999994
C      36.016899999999993     39.874099999999991     38.614999999999995
C      35.961799999999997     43.141299999999994     40.073700000000002
H      38.928799999999995     31.078200000000002     36.441900000000004
H      33.179000000000002     35.010299999999994     35.392399999999995
H      38.106599999999986     44.681399999999989     38.884299999999996
H      36.676400000000001     32.270099999999992     36.403899999999993
H      40.928599999999989     34.093600000000002     35.669200000000004
H      41.931699999999992     36.612600000000000     36.237700000000004
H      34.654699999999991     35.271499999999996     34.911000000000001
H      34.086099999999988     34.709299999999999     37.908900000000003
H      34.099699999999999     33.111600000000003     36.983000000000004
H      42.820999999999998     40.737899999999996     38.168300000000002
H      40.381599999999992     44.921799999999998     38.419100000000000
H      41.970699999999994     42.085499999999989     38.856399999999994
H      41.361699999999999     44.264599999999994     39.581799999999987
H      35.299199999999999     40.651299999999999     38.981600000000000
H      34.317099999999996     38.829599999999999     38.407999999999987
H      35.903799999999990     43.699399999999990     41.088999999999999
H      35.303599999999989     42.050399999999996     40.326499999999996
H      35.182199999999995     43.725499999999997     39.453900000000004
H      33.728899999999996     37.281199999999998     37.060399999999987
H      41.344799999999992     43.632500000000000     37.736300000000000
N      40.281299999999987     38.506199999999993     37.061899999999994
S      39.831299999999999     32.063399999999994     36.709299999999999
