8

C      38.751649999999998     38.179849999999995     37.563309999999994
C      37.507850000000005     37.940649999999991     38.290390000000002
H      39.422349999999994     39.013350000000003     37.781580000000005
H      39.241950000000003     37.465750000000000     38.165319999999994
H      38.845849999999999     37.880450000000003     36.568559999999998
H      36.577650000000006     38.644549999999995     38.350720000000003
H      37.107450000000000     36.986649999999997     37.374339999999997
H      37.653649999999985     37.605249999999991     39.431440000000002
