17

C      38.814054999999996     37.314649999999993     37.610749999999996
C      38.079205000000002     38.541449999999998     37.628349999999998
C      38.873425000000012     39.549450000000000     38.358049999999992
C      39.781115000000014     39.119850000000000     39.238249999999994
C      40.335105000000013     37.813150000000000     39.271149999999992
C      39.577294999999992     36.722450000000002     38.794049999999999
C      36.574985000000012     38.534950000000002     37.820650000000001
C      35.921405000000007     37.467950000000002     37.027850000000001
H      38.672195000000002     36.659550000000003     36.724149999999995
H      39.107405000000014     40.404150000000001     37.869149999999991
H      40.677205000000001     39.855649999999990     39.727349999999987
H      41.180804999999992     37.650649999999999     39.922650000000004
H      40.122305000000011     35.595849999999999     38.621749999999992
H      36.484265000000008     37.324550000000002     36.077349999999996
H      36.112435000000005     36.553750000000001     37.579349999999991
H      34.819195000000008     37.398249999999997     36.715850000000003
O      35.916465000000002     39.362050000000004     38.376649999999998
