73

C      38.371350000000000     35.797599999999989     32.796199999999999
C      40.837950000000006     37.966000000000008     36.617999999999995
C      42.193850000000012     37.679899999999989     36.903500000000008
C      44.136250000000004     38.031800000000004     33.804800000000000
C      40.203949999999999     37.183300000000003     35.580200000000005
C      43.077549999999995     36.804299999999998     36.327200000000005
C      40.861449999999998     36.294399999999996     33.453800000000001
C      43.550649999999997     36.956099999999992     33.967700000000008
C      41.154650000000004     36.813099999999991     34.718800000000002
C      42.727849999999997     36.277299999999997     34.987000000000009
C      39.502750000000006     36.655000000000001     32.927900000000008
C      44.354050000000001     37.081299999999999     37.258800000000008
C      34.521350000000012     38.983000000000004     37.677300000000002
C      35.550550000000008     39.076799999999992     38.646100000000004
C      31.841549999999998     38.616500000000002     41.552000000000007
C      33.237550000000006     39.543799999999990     38.130800000000008
C      35.213150000000006     38.941200000000009     39.976299999999995
C      31.585549999999998     39.036100000000005     40.142200000000003
C      33.197350000000007     38.854300000000009     41.727499999999992
C      32.864450000000005     39.186999999999998     39.454799999999992
C      33.901750000000007     39.183700000000002     40.445400000000006
C      34.677850000000007     38.881799999999998     36.188900000000004
C      36.258550000000000     39.024699999999996     35.850600000000000
C      37.314750000000004     39.350200000000001     36.874099999999999
C      37.049450000000007     39.301500000000004     38.274900000000002
C      36.479150000000004     38.830699999999993     40.862600000000000
C      37.312050000000006     37.868600000000001     40.248300000000000
C      33.611550000000008     38.935199999999995     43.225200000000001
C      38.787749999999996     39.415400000000005     36.536400000000000
C      36.915750000000003     36.455600000000004     39.945200000000000
C      41.665950000000009     39.652799999999999     40.548599999999993
C      41.218150000000009     40.637600000000006     41.415800000000004
C      40.197850000000003     40.493200000000002     42.293899999999994
C      39.303350000000009     39.441800000000001     41.922200000000004
C      39.761450000000011     38.332300000000004     41.172499999999999
C      40.937050000000006     38.456600000000009     40.410499999999999
C      37.933150000000012     39.693699999999993     42.460899999999995
H      38.577449999999999     34.704099999999997     32.821700000000007
H      37.395550000000000     36.424900000000008     32.335200000000000
H      38.962850000000003     37.590000000000003     35.276100000000000
H      42.574249999999999     38.463200000000001     37.643900000000002
H      39.022650000000006     37.655299999999997     33.332599999999999
H      41.818350000000009     36.342100000000002     32.838600000000000
H      44.297250000000005     37.518799999999985     38.320799999999991
H      43.303550000000008     34.402100000000004     35.638499999999993
H      31.166750000000008     37.956000000000003     42.087800000000001
H      32.211449999999999     39.585000000000008     37.669600000000003
H      30.690350000000002     39.046700000000001     39.703999999999994
H      36.422150000000009     39.682699999999997     34.968199999999996
H      37.828750000000007     39.897100000000009     38.943600000000004
H      34.571150000000003     39.481099999999998     43.106000000000009
H      38.591550000000012     37.905200000000008     39.537600000000012
H      32.911450000000009     39.423500000000004     43.664800000000000
H      33.729850000000006     37.886499999999998     43.640799999999999
H      36.658850000000008     37.997699999999995     35.241500000000002
H      38.885550000000009     39.195999999999998     35.530599999999993
H      39.334050000000005     40.527999999999992     36.661100000000005
H      35.831850000000003     36.139600000000002     40.412300000000002
H      45.309649999999998     39.037099999999995     32.518900000000002
H      42.289250000000010     40.075299999999999     39.728499999999997
H      41.945250000000009     41.597899999999996     41.517399999999995
H      39.872949999999996     41.243899999999996     42.987000000000009
H      39.126850000000005     37.527999999999992     41.552900000000008
H      41.133950000000006     37.603099999999998     39.767799999999994
H      37.899250000000009     40.680099999999996     43.177499999999995
H      37.816650000000010     38.626199999999997     42.990800000000007
N      44.776550000000000     39.100000000000009     33.392900000000012
O      45.242050000000006     36.980500000000006     36.484999999999999
O      43.117950000000008     34.758400000000009     34.768400000000000
O      40.306850000000004     39.030400000000000     37.097099999999998
O      36.660850000000011     39.810699999999997     41.701100000000011
O      33.718050000000005     38.424800000000005     35.666300000000007
O      37.367650000000012     36.082200000000000     38.894400000000005
