5

C      38.143799999999992     37.842500000000001     37.391949999999994
H      38.694499999999998     37.451500000000003     36.575350000000000
H      37.305500000000002     38.548499999999997     37.164750000000005
H      38.158999999999999     38.240800000000000     39.424650000000000
N      38.527100000000004     37.811399999999999     38.556550000000001
