6

C      38.056699999999992     38.511799999999994     38.276849999999996
C      38.052199999999999     37.185500000000005     37.957949999999997
H      37.048499999999997     36.841100000000004     37.795249999999996
H      38.951500000000003     39.043800000000005     38.162250000000000
H      37.134999999999998     39.189799999999998     38.418549999999996
H      38.894500000000001     36.810200000000002     37.581450000000004
