6

C      37.904879999999999     37.838949999999997     38.868799999999993
C      38.100999999999999     37.852349999999994     37.514199999999995
H      36.866650000000000     38.029750000000000     39.235199999999999
H      39.017549999999993     37.771250000000002     39.179899999999996
H      39.133350000000000     37.849749999999993     37.215399999999995
H      37.290680000000002     38.228749999999998     36.764800000000001
