52

C      35.975099999999998     35.669640000000001     39.628449999999994
C      40.205800000000004     36.956360000000004     34.394350000000003
C      36.548000000000009     36.946700000000007     39.567150000000005
C      39.812299999999993     38.140749999999997     35.267950000000006
C      36.106200000000001     34.578370000000007     38.727850000000004
C      39.854199999999992     35.611869999999996     34.603650000000002
C      37.586699999999993     37.239750000000001     38.699049999999993
C      39.444700000000005     37.703710000000001     36.549250000000001
C      37.350300000000004     33.867320000000007     36.789350000000006
C      38.281700000000001     34.065739999999991     35.719450000000002
C      36.944099999999999     34.977620000000002     37.699850000000005
C      38.888800000000010     35.434070000000006     35.597150000000006
C      37.568700000000000     36.314450000000008     37.581250000000004
C      38.681200000000011     36.378200000000007     36.611450000000005
C      38.223800000000004     38.542119999999997     38.472550000000005
C      39.271599999999999     38.711539999999999     37.532550000000001
C      34.799700000000001     35.477060000000009     40.531950000000002
C      35.153500000000001     37.722600000000000     41.247650000000000
C      35.930100000000003     38.224950000000007     40.142950000000006
C      36.412999999999997     39.576200000000000     39.885750000000002
C      37.668700000000008     39.776510000000002     39.267450000000004
C      41.086300000000001     37.246850000000009     33.402149999999999
C      41.326600000000006     38.613900000000001     32.948649999999994
C      40.754500000000000     39.780410000000003     33.442949999999996
C      40.164599999999993     39.450560000000010     34.834550000000000
C      39.967699999999994     40.395409999999998     35.871850000000002
C      39.648900000000005     40.106909999999999     37.237349999999999
C      38.534800000000004     41.015810000000002     39.241550000000004
C      39.236000000000011     41.205209999999994     38.079250000000002
C      35.053600000000003     38.380600000000001     42.497350000000004
C      36.681200000000004     40.299010000000010     43.347549999999998
C      36.504599999999996     38.902730000000005     42.843950000000000
H      35.628500000000003     33.856940000000009     38.663650000000004
H      40.132100000000001     34.843209999999999     34.035050000000005
H      37.254200000000004     32.818190000000001     36.939250000000001
H      38.153800000000011     33.153280000000009     34.959850000000003
H      34.255300000000005     34.706870000000009     40.843550000000000
H      35.777900000000010     40.357110000000006     40.421249999999993
H      41.476900000000001     36.396680000000003     32.631250000000001
H      41.931300000000000     38.877200000000002     32.022549999999995
H      40.981300000000012     40.612909999999999     33.014650000000003
H      40.187700000000000     41.366110000000006     35.524050000000003
H      38.581699999999998     41.860410000000002     40.101550000000003
H      36.878999999999998     38.275660000000002     43.649649999999994
H      36.025799999999997     40.871409999999997     43.977450000000005
H      39.179599999999994     43.181809999999999     38.331050000000005
H      37.632700000000007     40.661010000000005     43.905350000000006
H      37.152200000000001     38.665010000000009     41.950649999999996
H      36.570200000000000     41.141410000000008     42.499950000000005
N      34.597000000000001     36.489680000000007     41.228750000000005
O      34.068700000000000     38.568269999999998     43.042349999999999
O      39.521500000000003     42.494509999999991     37.637750000000004
