43

C      37.175099999999993     37.332149999999984     38.530599999999993
C      37.931100000000001     38.497349999999997     38.874600000000001
C      40.126300000000001     35.295249999999996     41.362800000000007
C      37.534800000000004     35.932450000000003     39.012700000000009
C      38.742699999999992     38.400549999999996     40.126400000000004
C      39.007999999999996     34.662149999999997     40.785899999999998
C      40.179500000000004     36.735250000000008     41.419000000000011
C      38.437199999999997     35.768749999999997     40.168199999999999
C      39.018799999999999     37.034749999999988     40.665499999999994
C      36.320499999999996     37.363349999999997     37.481899999999996
C      35.789999999999992     38.775750000000002     36.808100000000010
C      36.768599999999985     39.842149999999990     37.116500000000002
C      37.609199999999994     39.726449999999986     38.328100000000006
C      35.786199999999994     36.305049999999994     36.658799999999999
C      34.893900000000002     36.381950000000003     35.566100000000006
C      34.809500000000000     37.737949999999998     35.162200000000013
C      35.176900000000003     39.026650000000004     35.640599999999992
C      36.153700000000001     35.072649999999996     37.479600000000005
C      37.077299999999994     34.701149999999984     38.505400000000009
C      37.675399999999996     41.712149999999994     36.697600000000008
C      38.253299999999996     41.971750000000000     37.921600000000012
C      38.616699999999994     40.785250000000005     38.715400000000002
C      39.405799999999992     39.478849999999994     40.629900000000006
C      39.465500000000006     40.612149999999986     39.818899999999999
C      41.436899999999994     34.496350000000007     41.505399999999995
H      39.099500000000006     33.570849999999993     40.440500000000000
H      41.115799999999993     37.228049999999996     41.841600000000000
H      34.481200000000001     38.114050000000006     34.225100000000012
H      35.839299999999994     34.298150000000007     36.654100000000000
H      37.623999999999995     42.623749999999987     35.989300000000000
H      39.029100000000000     42.903850000000006     38.182300000000012
H      40.084799999999994     39.499549999999999     41.689900000000009
H      39.916399999999989     41.524850000000001     40.362100000000012
H      33.797399999999996     35.552650000000000     34.055100000000010
H      37.754199999999990     33.096149999999994     37.669300000000007
H      35.282700000000006     40.799350000000004     34.735300000000009
H      42.202600000000004     35.193749999999994     41.944899999999990
H      41.471299999999992     33.461550000000003     41.783000000000001
H      41.654899999999998     34.622950000000003     40.340299999999999
N      36.849400000000003     40.790149999999997     36.276600000000002
O      34.485799999999990     35.408249999999995     34.715299999999999
O      37.524900000000002     33.386049999999997     38.570500000000010
O      34.536199999999994     40.248450000000005     35.151400000000010
