32

C      36.685349999999993     38.398649999999996     39.795499999999990
C      36.399750000000004     39.377250000000004     38.847999999999992
C      40.239049999999992     36.251049999999999     37.405999999999999
C      39.573550000000004     36.521149999999999     36.221399999999996
C      37.657749999999993     37.476250000000000     39.803000000000004
C      37.149550000000005     39.259750000000004     37.750399999999992
C      39.699249999999999     36.619350000000004     38.648399999999995
C      38.538550000000001     37.651049999999998     36.194200000000002
C      38.617550000000001     37.492850000000004     38.681300000000000
C      38.047750000000001     38.141649999999998     37.388599999999997
C      35.878650000000000     38.602850000000004     41.010399999999990
C      35.325450000000004     39.891350000000003     41.085500000000003
C      35.080850000000005     40.708550000000002     40.048099999999998
C      41.438850000000002     35.339550000000003     37.595999999999997
C      41.753650000000000     34.604150000000004     36.376600000000003
C      40.937350000000002     34.822650000000003     35.206199999999995
C      40.141149999999996     35.971750000000000     34.961599999999997
C      33.914950000000005     41.697450000000003     40.055799999999998
H      37.331150000000001     40.150649999999999     37.084600000000002
H      40.052949999999996     36.224650000000004     39.733200000000004
H      38.238450000000000     37.736750000000001     35.161199999999994
H      35.980350000000001     38.083249999999992     41.871000000000002
H      34.860750000000003     40.064950000000003     41.974899999999998
H      42.276650000000004     35.279550000000000     38.481800000000000
H      42.605950000000000     33.651049999999998     36.714099999999995
H      41.401049999999998     34.190750000000001     34.563600000000001
H      39.510750000000002     35.938549999999992     34.025100000000002
H      33.394050000000000     42.061349999999997     39.179700000000004
H      37.089649999999992     36.339849999999998     41.307300000000005
N      35.529149999999994     40.434449999999998     38.893999999999998
O      33.488350000000004     42.348950000000002     40.991800000000005
O      37.931849999999997     36.682650000000002     40.820900000000002
