19

C      37.575949999999992     37.878449999999994     37.682350000000000
C      38.787649999999999     37.383350000000000     38.065449999999998
C      39.702150000000003     36.709050000000005     37.101849999999999
C      39.309349999999995     36.529049999999998     35.787850000000006
C      38.085450000000009     37.173349999999999     35.403450000000007
C      37.114750000000001     37.758750000000006     36.257950000000008
C      36.614450000000005     38.724749999999993     38.420850000000002
C      36.333350000000010     38.780149999999999     39.740549999999999
C      35.955350000000010     38.823750000000004     41.094849999999994
C      36.333050000000000     38.565350000000002     35.710850000000008
H      39.356250000000003     37.411749999999998     39.292349999999999
H      40.626350000000002     36.260649999999998     37.493449999999996
H      39.897050000000007     36.298349999999999     34.998750000000001
H      38.118349999999992     37.120649999999998     34.372150000000005
H      35.377250000000004     38.775150000000004     38.197549999999993
H      35.373649999999998     37.942949999999989     41.627849999999995
H      35.527450000000002     39.583649999999999     41.405950000000004
H      36.547650000000004     39.739350000000002     35.429249999999996
H      35.500550000000004     38.199150000000003     35.088850000000008
