49

C      38.092249999999993     37.633399999999995     37.066349999999993
C      37.203350000000000     38.562799999999996     36.413049999999998
C      37.852950000000007     40.485900000000001     41.161149999999999
C      37.190550000000002     41.651899999999998     40.489249999999991
C      38.276349999999994     37.984399999999994     38.442749999999997
C      36.722449999999995     39.678500000000000     37.076049999999995
C      38.441249999999997     39.252199999999988     40.546150000000004
C      36.809449999999998     41.245099999999994     39.211350000000003
C      37.905249999999995     39.092199999999991     39.282150000000001
C      37.110150000000004     39.991399999999999     38.498550000000002
C      38.660449999999997     36.431500000000000     36.364850000000004
C      38.690349999999995     36.311299999999989     34.857250000000001
C      37.900350000000003     37.320899999999995     34.274149999999999
C      37.134650000000008     38.455399999999997     34.901850000000003
C      38.562049999999999     40.909999999999997     42.325850000000003
C      37.679349999999999     42.963499999999996     42.380949999999999
C      36.944950000000006     42.909099999999995     41.267450000000004
C      38.880049999999997     35.432299999999998     37.380650000000003
C      38.682249999999996     34.028999999999996     36.848050000000001
C      38.711250000000007     33.945699999999988     35.441949999999999
C      38.221649999999997     34.919799999999995     34.585350000000005
C      39.413250000000005     35.677599999999998     38.629750000000001
C      38.801450000000003     36.817099999999996     39.211049999999993
C      39.516149999999996     37.074999999999989     40.614750000000001
C      39.510049999999993     38.443599999999989     41.133050000000004
C      36.079650000000001     40.705500000000001     36.272749999999995
C      36.673550000000006     39.605699999999999     34.199650000000005
C      36.098149999999990     40.644099999999995     34.989449999999998
C      35.793849999999992     42.387400000000000     38.873949999999994
C      38.711950000000002     32.831699999999998     37.645449999999997
H      37.352950000000007     37.253299999999996     33.263150000000003
H      39.363849999999999     40.162499999999994     42.761650000000003
H      37.763149999999996     43.928899999999999     42.950949999999992
H      36.103149999999999     43.652699999999996     41.319550000000000
H      38.818950000000001     33.083500000000001     34.798549999999999
H      37.873850000000004     34.622099999999989     33.547150000000002
H      39.705649999999991     36.176299999999998     41.195250000000001
H      40.294250000000005     38.907899999999998     41.901949999999999
H      35.758550000000000     41.783000000000001     36.647850000000005
H      35.466250000000002     41.689999999999998     34.836750000000002
H      36.771749999999997     39.652099999999990     33.018250000000002
H      41.012349999999998     35.562999999999988     39.679749999999999
H      36.335149999999999     43.446299999999994     38.856549999999999
H      35.164950000000005     42.163399999999996     37.889349999999993
H      38.331550000000007     32.071100000000001     37.134849999999993
H      38.589150000000004     33.047299999999993     38.676249999999996
H      34.987650000000002     42.106799999999993     39.350650000000002
N      38.463650000000001     42.066699999999997     42.981749999999998
O      40.573350000000005     35.127399999999994     39.041150000000002
