22

C      37.453099999999992     36.950699999999991     36.945349999999998
C      37.005600000000001     37.790099999999988     35.960049999999995
C      36.739900000000006     39.217299999999994     36.065450000000006
C      37.497299999999996     39.772199999999998     37.043350000000004
C      37.956100000000006     39.137299999999989     38.276949999999999
C      38.091099999999997     37.658499999999989     38.044750000000008
C      38.646400000000000     39.882700000000000     39.264150000000001
C      38.421999999999997     38.400999999999996     41.192550000000004
C      39.063100000000006     39.482299999999995     40.592250000000000
C      37.329599999999999     35.337000000000003     37.192450000000008
H      36.189399999999992     39.786900000000003     35.146950000000004
H      37.281800000000004     40.878799999999998     37.222850000000008
H      38.389899999999997     37.296499999999995     39.011549999999993
H      37.637600000000006     37.975099999999998     40.464150000000004
H      38.381100000000004     37.701699999999995     42.148150000000001
H      36.917500000000004     37.795900000000003     33.851849999999999
H      39.810600000000008     39.940600000000003     41.037050000000008
H      37.287099999999995     35.434399999999997     38.378150000000005
H      36.429699999999997     34.923299999999998     36.554650000000009
H      38.224900000000005     34.917400000000001     37.093950000000007
O      38.477500000000006     41.082599999999999     39.167650000000009
O      36.823000000000008     37.208699999999993     34.754850000000005
