52

C      35.945449999999994     43.195499999999996     40.412919999999993
C      36.431749999999994     41.247810000000008     37.271049999999995
C      37.240350000000007     41.021680000000003     36.048468000000000
C      37.189450000000008     34.291020000000003     39.770669999999996
C      40.968649999999997     36.930970000000002     37.519659999999995
C      35.822050000000004     40.248480000000008     38.168970000000002
C      38.643249999999995     34.573150000000005     39.446699999999993
C      40.409549999999996     35.811279999999996     38.243789999999997
C      36.407950000000000     35.328600000000002     39.177610000000001
C      38.154049999999998     39.877700000000004     36.278022000000000
C      40.052450000000007     37.988530000000004     37.204599999999999
C      35.850549999999998     37.713000000000001     38.272779999999997
C      38.982349999999997     35.571539999999999     38.471319999999999
C      36.460750000000004     38.952790000000007     37.830439999999996
C      36.684950000000001     36.541109999999996     38.475200000000001
C      37.866549999999989     38.834399999999995     37.112379999999995
C      38.746849999999995     37.696770000000008     37.556979999999996
C      38.060450000000003     36.587879999999998     38.139559999999989
C      36.322850000000003     42.548700000000004     37.790119999999995
C      36.302850000000007     43.407199999999996     36.624249999999989
C      36.502750000000006     42.997500000000009     35.255219999999994
C      37.184549999999987     41.890000000000008     34.929620000000000
C      36.658950000000004     33.101120000000002     40.476990000000001
C      37.658349999999999     32.433318000000007     41.169519999999999
C      39.106349999999992     32.676815000000005     40.822989999999990
C      39.570949999999996     33.553740000000005     39.901849999999996
C      41.095749999999995     33.852140000000006     39.289139999999996
C      41.453350000000000     35.063460000000006     38.778839999999995
C      34.358149999999995     40.552910000000004     40.232650000000000
C      35.218350000000001     41.188160000000003     39.244299999999996
C      35.264150000000001     42.633100000000006     38.905180000000001
C      41.656149999999997     32.624414000000002     39.642629999999997
H      35.621250000000003     44.216800000000006     40.559529999999995
H      35.392449999999997     42.762400000000007     41.227539999999991
H      36.862849999999995     42.705300000000001     40.415379999999999
H      37.744450000000001     41.584650000000003     34.032319999999999
H      42.024249999999995     37.113040000000005     37.147160000000000
H      35.486050000000006     35.496800000000000     39.696559999999998
H      39.055449999999993     39.967890000000004     35.688217999999999
H      40.405850000000001     38.946239999999996     36.965179999999997
H      34.621150000000000     37.620590000000007     38.431840000000001
H      35.565349999999995     33.049590000000002     40.639209999999999
H      37.719650000000001     31.617799999999995     41.967680000000001
H      39.795550000000006     31.997309000000001     41.287719999999993
H      41.200950000000006     31.617500000000000     39.723500000000001
H      42.594049999999996     35.393910000000005     38.485520000000001
H      33.913950000000000     40.905200000000008     41.309249999999999
H      33.171850000000006     40.415160000000000     40.010269999999998
H      34.405550000000005     43.057800000000007     38.460699999999996
H      36.063449999999989     44.382500000000000     36.530540999999992
H      36.432450000000003     43.693500000000000     34.418120000000002
H      42.828149999999994     32.735414000000006     39.918479999999995
