6

C      37.935299999999998     38.684249999999992     37.605899999999991
C      38.001800000000003     37.560749999999999     38.412099999999995
H      38.749400000000009     39.460050000000010     37.753399999999992
H      37.250599999999991     38.948350000000005     36.764099999999999
H      37.569400000000002     36.539949999999990     38.246799999999993
H      38.675399999999996     37.766750000000002     39.235900000000001
