68

C      35.171419999999983     34.836624999999998     36.384749999999997
C      36.351320000000001     34.963624999999993     37.215149999999994
C      40.827220000000011     39.453795000000000     36.547049999999999
C      34.591620000000006     35.917324999999991     35.625150000000005
C      40.821530000000010     40.917195000000007     36.076849999999993
C      37.004220000000004     36.203624999999988     37.278149999999997
C      39.567819999999998     38.718494999999990     36.503450000000001
C      39.017220000000009     42.638154999999998     34.832849999999993
C      34.750720000000001     38.492024999999998     35.358949999999993
C      36.280719999999988     40.425415000000001     34.463549999999998
C      39.568920000000006     41.506084999999999     35.613849999999999
C      35.202619999999996     37.171924999999987     35.668149999999997
C      37.442220000000006     41.134145000000004     34.708849999999998
C      35.967420000000004     39.189715000000007     35.164749999999998
C      36.597919999999988     37.238824999999991     36.318250000000006
C      38.323020000000000     39.218744999999998     36.127249999999989
C      38.445120000000003     40.601195000000004     35.710750000000004
C      37.072019999999995     38.424782000000008     35.769350000000003
C      34.646520000000010     33.492524999999986     36.079449999999994
C      35.355420000000009     32.181424999999990     36.445350000000005
C      36.114820000000009     32.493924999999990     37.614750000000001
C      36.321920000000006     33.887424999999993     38.155950000000004
C      41.902460000000019     38.822514999999996     37.187449999999998
C      43.169570000000007     39.314104999999998     37.160049999999998
C      43.217970000000008     40.658884999999998     36.621650000000002
C      42.076620000000005     41.547354999999996     36.301249999999996
C      33.376919999999998     33.151224999999997     35.440650000000005
C      32.907719999999998     31.748425000000001     35.281350000000003
C      33.829819999999998     30.650724999999998     35.339749999999995
C      34.802120000000002     30.911324999999994     36.324150000000003
C      33.457020000000000     35.694124999999985     34.467849999999999
C      33.079419999999999     34.323924999999988     34.507949999999994
C      39.354720000000000     45.058244999999999     35.131850000000000
C      39.839196000000001     43.776105000000001     34.917349999999999
C      37.554020000000008     36.506524999999996     38.613349999999997
C      37.688419999999994     35.435924999999997     39.545149999999992
C      37.351920000000007     33.988424999999992     39.287049999999994
C      37.995619999999988     35.701524999999990     40.996449999999996
C      37.874620000000007     45.272064999999998     35.488849999999999
C      38.920920000000010     34.606724999999997     41.655850000000001
H      31.975419999999996     34.290724999999995     35.098650000000006
H      39.293120000000002     37.620311000000001     36.753249999999994
H      41.733700000000013     37.632380999999995     37.503050000000002
H      34.002620000000007     38.712395000000001     34.706549999999993
H      35.626219999999989     40.904195000000001     33.646249999999995
H      36.546419999999998     31.647724999999998     38.246749999999992
H      44.029900000000012     38.781545000000008     37.488950000000003
H      44.056979999999996     41.309465000000003     36.276250000000005
H      31.943020000000001     31.429724999999994     35.140950000000004
H      33.903419999999997     29.902925000000000     34.616749999999996
H      34.903320000000008     30.083324999999991     36.935649999999995
H      33.783020000000008     36.043824999999984     33.429050000000004
H      32.700820000000007     36.326124999999990     34.874449999999996
H      33.086920000000006     33.924924999999988     33.446150000000003
H      40.035446000000007     45.995575000000002     34.910349999999994
H      42.298740000000009     42.399775000000005     35.760049999999993
H      40.765230000000003     44.001235000000008     34.673950000000005
H      38.077420000000004     37.401824999999988     38.869149999999991
H      37.664520000000010     33.105024999999998     39.707750000000004
H      37.055519999999987     35.578324999999992     41.550550000000001
H      38.435820000000007     36.728024999999988     41.113950000000003
H      37.459220000000002     45.703524999999999     34.550650000000005
H      37.483420000000010     44.517965000000004     36.234849999999994
H      37.444419999999994     46.097075000000004     36.150649999999999
H      38.189519999999987     33.798024999999996     41.775949999999995
H      40.063239000000010     34.529424999999989     41.141449999999992
H      39.529719999999983     34.478424999999987     42.570949999999996
N      37.874819999999985     42.271905000000004     34.194850000000002
