5

C      37.740399999999994     38.105899999999991     38.104449999999993
H      38.794399999999996     38.152299999999990     37.545750000000005
H      37.205600000000004     37.916899999999998     37.159649999999999
H      37.482799999999997     38.826000000000001     38.773349999999994
H      37.908400000000000     37.173999999999999     38.840350000000001
