43

C      39.736849999999990     38.640434999999997     34.410090000000004
C      40.577729999999995     38.566834999999998     35.630490000000009
C      34.397449999999999     38.970235000000002     39.362890000000014
C      38.286149999999999     36.813635000000005     40.501480000000015
C      38.287849999999999     38.366034999999997     34.680190000000003
C      35.036049999999996     37.865034999999992     40.245430000000006
C      36.822150000000001     36.533235000000005     40.350630000000002
C      34.552149999999990     39.506034999999997     38.023216000000012
C      39.964619000000006     38.537435000000002     36.940189999999994
C      38.732750000000003     37.722234999999998     39.552550000000004
C      36.365049999999982     38.862435000000005     36.242289999999997
C      36.330049999999993     37.649235000000004     39.641700000000014
C      37.744749999999989     38.408734999999993     35.989289999999990
C      35.954050000000002     39.269234999999995     37.448890000000006
C      38.665349999999997     38.375135000000000     37.044189999999993
C      38.022249999999993     38.180134999999993     38.403802000000013
C      36.671349999999997     38.560734999999994     38.565420000000003
C      40.352976000000005     39.050335000000004     33.214190000000002
C      41.809270000000005     39.050834999999992     32.977989999999998
C      42.551659999999998     39.264434999999992     34.235190000000003
C      42.022850000000005     38.925635000000000     35.458990000000000
C      32.997250000000001     38.807935000000001     39.909840000000017
C      32.537950000000002     38.247934999999998     41.151440000000008
C      33.206749999999992     37.483834999999999     41.953400000000009
C      34.513449999999999     37.301334999999995     41.458250000000007
C      43.902230000000003     39.904340000000005     33.839290000000005
H      38.850949999999990     36.111435000000000     41.244050000000016
H      37.865249999999996     38.562434999999994     33.846290000000010
H      36.456949999999999     35.529934999999995     40.382990000000014
H      34.157549999999993     40.306336999999999     37.400090000000006
H      40.391694999999999     38.925235000000001     37.870891000000015
H      39.766008500000005     37.561734999999999     39.618120000000012
H      35.791849999999990     38.939234999999996     35.383090000000010
H      39.569949999999999     38.790634999999995     32.394490000000005
H      42.644939999999998     39.418334999999999     32.269289999999998
H      42.622740000000000     38.840035000000000     36.482089999999999
H      32.147349999999996     39.166134999999997     39.437910000000009
H      31.455949999999994     38.394535000000005     41.578910000000008
H      35.379150000000003     36.558934999999991     41.961670000000012
H      44.232270000000000     39.693934999999996     32.818290000000005
H      33.241049999999994     36.640834999999996     43.730710000000002
O      44.544050000000006     40.470065000000005     34.705790000000007
O      32.851349999999989     37.456135000000003     43.273370000000007
