5

C      37.782879999999992     38.064799999999991     37.934834999999993
H      37.730829999999990     38.841000000000001     37.127474999999997
H      38.770499999999998     37.972400000000000     38.210374999999992
H      37.442689999999999     37.158999999999999     37.602705000000000
H      37.229500000000002     38.273400000000002     38.872525000000003
