11

C      39.232900000000001     38.574399999999990     36.725999999999999
C      37.296600000000005     37.776600000000002     37.364400000000003
C      37.504700000000007     37.566000000000003     38.737799999999993
C      38.892499999999998     37.909300000000002     38.835100000000011
H      35.901299999999999     37.100999999999999     39.739200000000011
H      40.098700000000001     38.899000000000001     36.078500000000005
H      39.377600000000008     37.879300000000001     39.796900000000008
H      36.285899999999998     37.712800000000001     37.060500000000005
N      39.739300000000007     38.344200000000001     37.953200000000010
N      38.085400000000007     38.253000000000000     36.358800000000002
O      36.809100000000001     37.267200000000003     39.921499999999995
