5

C      38.248149999999995     37.947294999999997     38.150249999999993
H      38.314550000000011     37.393215000000005     37.248849999999997
H      37.264150000000001     37.812125000000002     38.751150000000003
H      38.691150000000007     38.982424999999999     38.044849999999997
H      38.735849999999999     37.017575000000001     38.738250000000001
