20

C      36.447050000000004     39.575949999999992     38.840699999999998
C      38.465049999999991     39.580449999999992     39.839399999999998
C      38.719750000000005     38.200749999999999     39.353600000000000
C      37.726050000000001     37.529449999999997     38.476099999999995
C      36.557450000000003     38.287749999999996     38.294700000000006
C      35.450950000000006     37.489849999999997     37.570699999999995
C      35.933350000000004     36.945749999999997     36.298000000000002
C      39.894849999999991     37.341949999999997     39.503599999999999
H      35.386750000000006     39.988149999999997     38.702000000000005
H      39.169849999999997     40.049050000000001     40.539300000000004
H      37.835049999999995     36.509649999999993     38.571100000000001
H      35.005549999999999     36.886850000000003     35.405499999999996
H      36.967150000000004     37.433550000000004     35.783000000000001
H      36.333449999999999     35.814050000000002     36.289500000000004
H      39.902450000000002     36.605049999999999     38.521300000000004
H      39.784649999999999     37.214149999999997     40.594500000000004
H      41.693249999999992     37.527149999999999     40.051100000000005
N      37.399649999999994     40.185949999999998     39.613599999999998
O      34.306750000000008     37.684649999999998     37.897600000000004
O      41.079549999999998     38.145850000000003     39.521599999999992
