6

C      38.559599999999989     38.205359999999992     38.125284999999991
C      37.406400000000005     37.833159999999999     37.603485000000006
H      38.601799999999997     39.146760000000000     38.901484999999994
H      39.571799999999996     37.736159999999998     37.997384999999994
H      36.428200000000004     38.407259999999994     37.700085000000001
H      37.483000000000004     36.853240000000000     37.098515000000006
