38

C      39.365849999999995     39.441109999999995     36.488599999999998
C      36.050649999999997     35.798280000000005     41.592399999999998
C      39.479050000000001     38.002380000000002     36.477000000000004
C      36.534149999999997     35.102930000000001     40.588200000000008
C      39.153750000000002     40.134880000000010     37.651800000000001
C      36.322350000000000     37.214160000000007     41.790999999999997
C      39.021149999999999     37.055230000000009     37.557800000000007
C      37.585050000000003     35.730740000000011     39.659399999999998
C      37.714750000000002     40.015810000000002     39.689900000000002
C      36.882950000000001     39.272820000000010     40.591799999999999
C      38.486350000000002     39.292630000000003     38.636600000000001
C      37.000850000000000     37.930060000000012     40.748200000000004
C      38.631250000000001     37.823410000000010     38.705799999999996
C      37.827350000000003     37.155080000000012     39.613900000000001
C      38.832149999999999     35.597540000000009     37.516199999999998
C      38.081750000000000     35.010790000000000     38.531200000000005
C      39.199149999999989     40.369669999999999     35.215200000000003
C      39.860149999999997     39.759829999999994     34.027800000000006
C      40.205749999999995     38.414950000000005     34.120200000000004
C      39.990749999999991     37.504570000000001     35.185600000000008
C      39.964449999999999     36.025030000000001     35.056700000000006
C      39.386550000000000     35.228180000000009     36.124200000000002
C      36.525649999999999     40.359769999999997     41.663500000000006
C      39.771349999999991     41.457270000000008     37.924899999999994
H      35.061050000000002     35.481030000000004     42.159499999999994
H      36.258850000000002     34.045920000000010     40.357399999999998
H      36.642249999999997     37.145760000000010     43.009499999999996
H      38.341549999999998     40.838170000000005     39.778499999999994
H      37.661250000000003     33.994430000000008     38.323399999999999
H      38.808950000000003     41.466170000000005     35.059500000000007
H      39.755449999999989     40.207669999999993     32.990500000000004
H      40.938949999999998     38.277590000000004     33.269700000000000
H      39.094349999999999     34.057570000000013     36.395800000000001
H      40.100549999999998     35.550520000000006     34.142200000000003
H      35.983950000000000     39.787779999999998     42.497400000000006
H      39.650949999999995     41.478870000000001     39.086400000000005
O      37.207549999999998     41.318370000000002     41.894000000000005
O      40.645049999999991     42.005569999999992     37.221900000000005
