5

C      37.684299999999993     38.022999999999996     38.101899999999986
H      38.855100000000000     37.954500000000010     37.861699999999999
H      37.144900000000000     38.941800000000001     38.428999999999988
H      37.820999999999991     37.058199999999999     38.873400000000004
H      37.423499999999997     37.564700000000002     37.126599999999996
