5

C      38.109189999999991     38.109399999999994     37.878049999999995
H      38.918920000000000     38.539999999999992     37.271650000000001
H      37.081080000000000     38.130700000000004     37.466549999999998
H      38.784880000000001     37.191500000000005     37.947550000000000
H      38.196500000000000     38.808499999999995     38.728349999999999
