23

C      36.167800000000000     38.127599999999994     36.325399999999988
C      37.330900000000000     38.992099999999994     36.486199999999982
C      39.595500000000001     38.840299999999999     37.641199999999998
C      40.370400000000011     38.528700000000001     38.797200000000004
C      39.946399999999997     37.987400000000001     40.035299999999992
C      38.093900000000012     39.680099999999996     35.351799999999997
C      39.070200000000007     36.887700000000002     40.541699999999992
C      38.239500000000007     38.596199999999996     37.537599999999998
C      37.629400000000011     36.344400000000000     40.274899999999988
H      40.295800000000007     38.989100000000001     36.655299999999997
H      37.460600000000007     39.382199999999990     34.430800000000005
H      40.823099999999997     38.338799999999999     40.545400000000001
H      37.944299999999998     40.720300000000002     34.860299999999995
H      36.169699999999999     37.328299999999999     36.992099999999994
H      37.772500000000001     38.204299999999996     38.390199999999993
H      41.286200000000001     39.204799999999992     38.961100000000002
H      39.215000000000011     39.397300000000001     35.239999999999995
H      36.956900000000012     36.946999999999996     39.471299999999999
H      37.751300000000008     35.279699999999998     39.274000000000001
H      36.972600000000007     36.395600000000002     41.218999999999994
H      39.334299999999999     37.144700000000000     41.569199999999995
H      34.713800000000006     39.088299999999997     34.891400000000004
N      35.242100000000001     38.127099999999999     35.286599999999993
