71

C      40.855599999999995     39.144789999999993     36.987099999999998
C      40.021999999999991     37.989490000000004     36.679200000000002
C      37.327799999999996     34.426189999999984     40.583399999999990
C      41.527999999999992     38.904989999999998     38.348200000000006
C      37.227099999999993     34.111689999999996     41.937399999999997
C      39.800500000000000     36.876989999999992     37.461900000000000
C      38.075400000000002     35.377889999999994     39.968600000000009
C      37.793199999999999     36.417289999999994     43.254600000000011
C      38.613500000000002     36.950890000000001     44.340600000000009
C      41.725799999999992     35.835790000000003     42.044100000000000
C      38.135499999999993     34.989089999999990     42.853099999999991
C      41.701999999999998     37.757289999999998     39.004700000000000
C      40.824200000000005     34.880690000000001     42.601099999999995
C      41.591899999999995     36.559989999999999     40.837400000000002
C      40.712900000000005     36.701290000000000     38.693899999999999
C      39.355099999999993     35.677989999999994     40.668300000000002
C      39.515899999999988     35.158589999999990     41.985399999999998
C      40.550799999999995     36.193489999999997     39.932099999999998
C      40.689899999999994     40.328890000000001     36.251200000000004
C      39.912899999999993     40.530490000000000     35.063100000000006
C      39.588300000000004     39.169289999999990     34.400299999999994
C      39.272099999999995     38.094789999999996     35.323900000000002
C      36.221999999999994     33.866590000000002     39.731200000000001
C      35.127799999999993     33.194589999999991     40.035800000000002
C      35.115300000000005     32.732289999999992     41.382700000000000
C      36.274100000000004     33.063989999999990     42.186199999999992
C      41.186300000000003     41.620683999999997     36.775800000000004
C      41.253900000000002     42.884120000000003     36.121200000000002
C      40.368399999999994     42.921369999999996     35.012500000000003
C      39.763700000000000     41.688224000000005     34.395600000000002
C      41.954099999999997     41.400390000000002     37.953300000000006
C      41.956099999999992     40.268490000000000     38.825600000000009
C      39.741199999999992     39.096789999999999     32.985700000000001
C      39.477199999999996     37.868589999999998     32.342399999999998
C      39.449399999999997     36.763189999999994     31.678200000000004
C      38.185000000000002     37.299689999999998     35.156399999999998
C      38.749499999999998     35.962389999999999     37.062600000000003
C      37.764699999999991     36.230789999999999     36.075300000000006
C      37.198999999999998     37.301289999999995     42.618000000000002
C      42.329300000000003     40.420490000000001     40.058700000000002
C      35.919299999999993     34.690590000000000     38.479599999999998
C      34.823699999999995     34.389189999999999     37.659300000000002
H      37.869100000000003     35.844489999999993     38.940099999999994
H      38.741299999999995     38.054890000000000     43.879400000000004
H      42.707099999999997     36.081389999999999     42.405999999999999
H      41.046300000000002     34.276889999999995     43.424500000000009
H      34.246200000000002     32.216089999999994     41.883800000000008
H      39.736400000000003     36.650989999999986     44.205899999999993
H      41.895299999999992     43.758949999999999     36.767500000000005
H      40.174499999999995     43.794210000000007     34.440800000000003
H      39.089900000000000     41.708840000000009     33.384900000000002
H      42.544199999999989     42.415553000000003     38.207400000000007
H      40.348799999999997     39.856389999999983     32.464000000000006
H      40.044799999999995     35.825589999999991     32.328200000000002
H      38.859700000000004     34.815989999999999     37.302300000000002
H      37.226699999999994     35.276989999999998     35.604200000000006
H      37.776499999999999     37.370589999999993     34.248900000000006
H      36.512599999999992     37.092889999999997     41.856600000000000
H      37.612399999999994     38.389789999999991     42.381000000000000
H      36.754300000000001     32.205789999999993     42.743400000000008
H      42.448499999999996     39.712789999999998     40.928400000000003
H      33.292900000000003     33.625389999999996     39.164500000000004
H      34.563199999999995     33.421289999999999     37.326800000000006
H      39.571899999999999     36.642889999999994     30.631900000000002
H      38.384199999999993     36.604190000000003     45.368099999999998
H      36.036099999999990     36.029389999999985     38.262700000000002
H      34.178799999999995     35.190789999999993     37.258799999999994
H      42.215599999999995     41.540092000000001     40.248000000000005
H      38.283900000000003     34.265689999999992     43.770300000000006
N      42.307199999999995     37.564390000000003     40.251700000000000
O      34.084199999999996     33.165289999999999     38.998300000000000
