38

C      40.551449999999996     37.950649999999996     37.634495000000001
C      40.418349999999997     38.352750000000000     39.003595000000004
C      35.336250000000000     37.614350000000002     37.817594999999997
C      35.370150000000002     38.445650000000001     38.996795000000006
C      39.234749999999998     37.785750000000007     37.057395000000000
C      39.034149999999997     38.756050000000002     39.673195000000007
C      36.574249999999999     37.671450000000007     36.992995000000008
C      36.575949999999999     39.047550000000001     39.378495000000001
C      37.820949999999996     37.858849999999990     37.521895000000001
C      37.851450000000000     38.585049999999995     38.871695000000003
C      41.787349999999996     37.522750000000002     36.895395000000008
C      42.935249999999989     37.671350000000004     37.672494999999998
C      42.906950000000002     38.241250000000008     39.055995000000010
C      41.626649999999998     38.552650000000000     39.709995000000006
C      34.272350000000003     37.015950000000004     37.385995000000008
C      32.919150000000002     37.253050000000002     37.851095000000001
C      32.975149999999999     37.587350000000001     39.273295000000005
C      34.115850000000002     38.489549999999994     39.676295000000010
C      39.204650000000001     37.259650000000008     35.716895000000008
C      40.456150000000001     36.746450000000010     35.190395000000009
C      41.759349999999998     36.950450000000004     35.616595000000004
C      39.206349999999993     39.154349999999994     41.017695000000003
C      41.641149999999989     38.965050000000005     41.087994999999992
H      36.501149999999996     37.430149999999998     36.051495000000003
H      36.654049999999998     40.031350000000003     40.017395000000008
H      43.941650000000003     37.215249999999997     37.007795000000002
H      43.831849999999996     38.417549999999991     39.564095000000009
H      34.407350000000001     36.145550000000000     36.776994999999999
H      32.058349999999997     36.514550000000000     38.012295000000009
H      32.234850000000002     37.073350000000005     39.933395000000004
H      34.415950000000002     38.940749999999994     40.791995000000000
H      38.428150000000002     36.568849999999998     35.302395000000004
H      40.156950000000002     35.946150000000003     34.275004999999993
H      42.622549999999997     36.473249999999993     35.348894999999999
H      38.364950000000000     39.154949999999999     41.552594999999997
H      41.438249999999989     40.053849999999997     41.208494999999999
H      42.642049999999998     38.658450000000002     41.173794999999998
O      40.209949999999992     38.787949999999995     41.724995000000007
