8

C      38.050240999999986     38.291899999999998     37.414800000000000
C      37.501486200000002     37.760899999999999     38.704999999999998
H      39.179459999999992     38.182100000000005     37.209600000000009
H      37.761751000000004     37.787300000000002     36.269900000000007
H      37.244739999999993     39.254799999999996     37.491299999999995
H      36.820540000000008     38.318899999999999     39.229100000000003
H      36.945739999999986     36.745200000000004     38.460900000000009
H      38.163978000000000     37.641500000000001     39.730099999999993
