128

C      30.250649999999990     36.952899999999985     35.454249999999988
C      30.006149999999995     35.216399999999993     39.287949999999995
C      31.102149999999991     33.019899999999993     45.512050000000002
C      28.841349999999995     35.218800000000002     40.188949999999991
C      29.786949999999994     33.503600000000006     45.631749999999997
C      30.969749999999994     34.165000000000006     39.638950000000008
C      32.087049999999991     32.503299999999996     44.555050000000008
C      28.947849999999992     34.750599999999991     41.568549999999988
C      29.235349999999986     33.769700000000000     44.275949999999995
C      31.893349999999980     32.769099999999995     41.943150000000003
C      31.182249999999986     33.762900000000002     41.026150000000001
C      31.556649999999987     32.620699999999999     43.287449999999993
C      30.129449999999995     33.929999999999993     41.996949999999998
C      30.030749999999987     33.225700000000003     43.215050000000005
C      27.974649999999986     35.263499999999993     42.523350000000008
C      28.158649999999998     34.660100000000000     43.874049999999997
C      30.456349999999983     36.381699999999995     38.574749999999995
C      29.502149999999990     37.326300000000003     37.996849999999995
C      28.436449999999997     37.226299999999995     38.795749999999998
C      28.242749999999990     36.592799999999997     40.036749999999998
C      27.194649999999985     37.027199999999993     40.827849999999998
C      27.088149999999988     36.145200000000003     41.950050000000005
C      28.984249999999992     34.140500000000003     46.789049999999989
C      43.189459999999997     41.315299999999993     33.056349999999995
C      42.219719999999995     40.783400000000000     33.874049999999997
C      48.171349999999990     41.190799999999996     35.876149999999996
C      48.014449999999997     41.294200000000004     37.289349999999999
C      46.635049999999993     41.732599999999991     39.227649999999997
C      44.558750000000003     40.997699999999995     33.319350000000000
C      42.338470000000001     40.000399999999999     35.248350000000002
C      47.104950000000002     41.028800000000004     34.990750000000006
C      43.585359999999994     39.069999999999993     37.841949999999997
C      46.723950000000002     41.326399999999992     37.793350000000004
C      44.756949999999989     40.723100000000002     34.686650000000000
C      43.639449999999997     40.204800000000006     35.629050000000007
C      45.871850000000009     40.695099999999996     35.713049999999996
C      44.345149999999990     39.973200000000006     36.948949999999996
C      45.611649999999997     40.701399999999992     37.035849999999996
C      45.812150000000003     41.155699999999996     32.540450000000007
C      46.791849999999997     40.717500000000001     33.478650000000002
C      41.508479999999992     39.458999999999989     36.269850000000005
C      42.302519999999987     38.911500000000004     37.343350000000001
C      42.960809999999995     42.483300000000000     32.132849999999991
C      47.065549999999988     40.707599999999999     30.423249999999999
C      46.037649999999999     41.087099999999992     31.054750000000002
C      40.892650000000003     41.100199999999987     33.570450000000008
C      46.865549999999999     41.054599999999994     28.933749999999996
C      40.282219999999995     41.745800000000003     32.489350000000002
C      47.403449999999992     43.004300000000001     39.731949999999998
C      45.067449999999994     41.960200000000000     39.357849999999999
C      36.396900000000002     37.088200000000001     34.521349999999998
C      36.550700000000006     35.915099999999995     33.693550000000002
C      32.288149999999987     35.133600000000001     34.082450000000009
C      35.100249999999988     37.533199999999994     34.797250000000005
C      35.436840000000004     35.041100000000000     33.233649999999997
C      32.569549999999992     36.422899999999998     34.766050000000007
C      34.040152000000006     36.427800000000005     34.596950000000007
C      34.216915999999998     35.377799999999993     33.715850000000003
C      37.772040000000004     37.807799999999986     34.976749999999996
C      38.898839999999993     37.344099999999997     34.471450000000004
C      38.945789999999988     36.021100000000004     33.828550000000007
C      37.786789999999996     35.386199999999988     33.389350000000007
C      37.727289999999996     38.747399999999999     36.132450000000006
C      38.968130000000002     39.274199999999993     36.302050000000008
C      40.120970000000000     38.962599999999995     35.630549999999999
C      40.176140000000004     38.039800000000000     34.593950000000007
C      36.574860000000001     39.039599999999993     36.899150000000006
C      34.589911999999998     38.719600000000000     35.475049999999996
C      35.186210000000003     39.024199999999993     36.776449999999997
C      31.594649999999984     37.481200000000001     35.144750000000002
C      35.473870000000005     33.958399999999997     32.137550000000005
C      36.709069999999997     33.476399999999998     31.875650000000004
C      31.977549999999990     38.772300000000001     35.799549999999996
C      33.233549999999994     39.273799999999994     35.325249999999997
C      37.814650000000000     33.821899999999999     32.896650000000008
H      30.205549999999992     35.723600000000005     35.621150000000000
H      29.854649999999996     37.215500000000006     34.611249999999998
H      41.996960000000001     42.947100000000006     32.316350000000000
H      31.543649999999982     33.513899999999992     46.455050000000000
H      31.651849999999985     34.457999999999998     38.771550000000005
H      33.167249999999981     32.375399999999999     44.729450000000000
H      32.812049999999985     32.321299999999994     41.649749999999997
H      27.250449999999990     34.664100000000005     44.377049999999997
H      27.626449999999995     37.875100000000003     38.439949999999996
H      26.819349999999989     37.975899999999996     40.709050000000005
H      26.109449999999999     36.532200000000003     42.426850000000002
H      28.306549999999991     35.284899999999993     46.791950000000000
H      28.340949999999989     33.379199999999997     47.446650000000005
H      49.890550000000005     41.335300000000004     37.555849999999992
H      49.200849999999988     41.239300000000000     35.352750000000000
H      48.496949999999998     43.155299999999997     39.681750000000008
H      47.241849999999999     39.693200000000004     33.052949999999996
H      41.560719999999989     38.250100000000003     37.617550000000008
H      44.078549999999993     43.039500000000004     32.111149999999995
H      47.937650000000005     40.184699999999992     30.852550000000004
H      45.145150000000001     41.549199999999999     30.677150000000001
H      42.843869999999995     42.258299999999991     30.940450000000002
H      41.061090000000007     41.955399999999997     31.792750000000002
H      46.357749999999996     42.044599999999988     28.756949999999996
H      47.870750000000001     40.737899999999996     28.563450000000000
H      46.266049999999993     40.196600000000004     28.553349999999998
H      39.422409999999999     41.439800000000005     32.239850000000004
H      40.355050000000006     40.464900000000000     34.316350000000000
H      37.873329999999996     32.939499999999995     33.615650000000002
H      29.868749999999995     34.409799999999990     47.331850000000003
H      31.351549999999985     36.164400000000001     37.902650000000008
H      43.492570000000001     38.488000000000000     38.735849999999999
H      47.434949999999986     43.172299999999993     40.847850000000008
H      46.701849999999993     43.678700000000006     39.326750000000004
H      47.221649999999997     41.011499999999998     39.788950000000000
H      44.915049999999994     42.478600000000000     38.351849999999999
H      45.111149999999995     42.555899999999994     40.192350000000005
H      44.445449999999994     41.041299999999993     39.245349999999988
H      31.306149999999992     34.706800000000001     33.934449999999998
H      39.697679999999991     35.217699999999994     33.908249999999995
H      41.161829999999995     37.779799999999994     34.260350000000003
H      37.021729999999991     39.497900000000001     37.898949999999999
H      34.459207999999990     33.554299999999998     31.446450000000002
H      36.817139999999995     32.648200000000003     31.093450000000001
H      34.708460000000002     39.428200000000004     37.599949999999993
H      39.968809999999991     40.498999999999995     37.429649999999995
H      31.219649999999991     39.490700000000004     35.905649999999994
H      33.069549999999992     40.265699999999995     35.593350000000001
H      38.619039999999998     33.751999999999995     32.194649999999996
N      33.157649999999990     34.626700000000000     33.338750000000005
O      29.594949999999987     37.676699999999997     36.593249999999998
O      49.103449999999995     41.391300000000001     38.100149999999999
O      38.938580000000002     40.290299999999988     37.293849999999992
