136

C      38.271249999999995     34.467869999999991     40.655000000000001
C      37.252749999999999     33.037700000000001     35.598699999999994
C      35.809750000000001     32.697920000000003     35.726300000000009
C      34.211850000000005     35.018489999999993     39.323700000000002
C      37.954950000000004     33.529170000000001     36.690100000000001
C      35.117050000000006     33.446640000000002     36.862700000000004
C      38.299549999999996     35.240479999999998     38.405000000000001
C      37.266350000000003     34.392090000000003     37.743300000000005
C      35.847550000000005     34.292220000000000     37.783799999999999
C      37.939550000000004     32.406280000000002     34.481700000000004
C      37.099850000000004     31.741369999999996     33.527400000000000
C      35.769450000000006     32.499319999999997     33.360400000000006
C      34.834950000000006     32.666890000000002     34.707999999999998
C      39.332750000000004     31.837249999999997     34.501300000000001
C      39.748050000000006     30.877990000000004     33.505099999999999
C      39.066450000000003     30.258439999999993     32.441800000000001
C      37.730050000000006     30.810479999999998     32.608200000000004
C      39.799650000000000     32.097770000000004     35.823999999999998
C      39.391550000000002     33.185780000000001     36.654200000000003
C      40.404950000000007     33.847950000000004     37.507700000000000
C      38.984450000000002     34.648789999999998     39.596800000000002
C      33.773450000000004     33.537610000000001     37.176600000000008
C      33.415750000000003     32.696179999999998     34.858199999999997
C      32.880950000000006     33.047820000000002     36.171599999999998
C      39.983049999999999     35.345439999999996     37.530900000000003
C      37.018750000000004     30.015000000000001     31.498400000000004
C      41.268350000000005     31.836469999999998     36.214600000000004
C      41.911050000000003     30.672989999999999     36.023499999999999
C      37.180450000000000     43.409509999999997     38.493899999999996
C      32.164249999999996     42.156010000000002     42.767299999999992
C      36.746750000000006     42.063710000000000     38.259399999999999
C      32.538950000000007     40.936210000000003     42.149299999999997
C      36.676249999999996     44.228110000000001     39.502200000000002
C      32.772550000000003     43.281410000000001     42.473799999999997
C      35.932650000000002     41.287809999999993     39.088099999999997
C      33.609850000000002     40.800210000000000     41.183599999999998
C      35.640850000000000     43.746109999999994     40.306500000000000
C      33.841950000000004     43.407209999999992     41.412300000000002
C      35.298150000000007     42.327509999999997     40.053500000000000
C      34.101849999999999     42.049309999999991     40.797200000000004
C      35.352749999999993     39.958410000000001     39.476100000000002
C      34.389250000000004     39.719310000000000     40.527900000000002
C      38.420550000000006     43.782209999999999     37.752099999999999
C      38.685049999999997     42.911909999999999     36.548299999999998
C      38.313350000000007     41.525510000000004     36.434899999999999
C      37.222549999999998     41.140609999999995     37.203800000000001
C      36.857450000000007     39.654510000000002     37.542299999999997
C      36.213749999999997     39.066909999999993     38.753200000000007
C      36.917850000000001     45.736210000000000     39.495800000000003
C      39.116349999999997     44.980409999999999     37.763300000000001
C      37.020650000000003     38.086509999999990     39.504500000000007
C      38.419850000000004     38.415910000000004     39.761800000000008
C      34.276449999999997     38.830409999999993     41.678500000000000
C      39.869149999999998     46.052410000000002     37.631500000000003
C      44.212049999999998     39.548510000000000     39.795400000000001
C      42.122050000000002     38.551509999999993     41.931699999999992
C      40.987549999999999     39.218809999999991     42.665499999999994
C      44.269550000000002     42.907510000000002     41.827699999999993
C      43.440249999999999     43.160010000000000     42.950400000000002
C      43.398650000000004     39.122909999999997     41.758800000000008
C      41.184150000000002     40.371209999999998     43.383099999999999
C      44.069149999999993     41.601709999999997     41.057500000000005
C      42.291649999999997     42.313909999999993     43.317200000000000
C      43.362049999999996     40.556410000000000     41.762600000000006
C      42.453949999999999     40.977809999999991     42.946399999999997
C      42.211250000000000     37.201810000000002     41.317700000000002
C      40.974149999999995     36.395110000000003     41.064300000000003
C      39.537649999999999     36.822809999999997     41.486699999999999
C      38.986450000000005     37.409010000000002     40.407200000000003
C      45.231550000000006     43.859209999999990     41.219700000000003
C      45.063450000000003     45.135609999999993     41.805599999999998
C      44.402150000000006     45.352709999999995     43.122500000000002
C      43.793450000000007     44.330010000000001     43.752799999999993
C      43.394949999999994     37.162809999999993     40.626599999999996
C      43.628150000000005     36.125309999999999     39.779499999999999
C      42.609850000000002     35.042650000000002     40.119299999999996
C      41.234049999999996     35.241099999999989     40.394599999999997
C      44.373049999999999     38.398510000000002     40.893699999999995
C      44.749750000000006     40.945109999999993     40.000299999999996
H      38.794249999999998     34.015670000000000     41.779600000000002
H      37.282750000000007     34.684699999999992     40.607799999999997
H      37.861550000000001     36.213410000000003     38.607700000000008
H      36.135650000000005     33.365920000000003     32.812700000000000
H      40.862650000000002     30.717959999999998     33.585500000000003
H      39.086949999999995     29.464440000000003     31.786800000000003
H      41.436250000000001     33.601959999999998     37.950800000000001
H      33.590350000000001     33.771239999999999     38.153900000000007
H      32.822850000000003     32.768340000000002     34.027400000000000
H      31.809249999999999     33.174610000000001     35.920699999999997
H      39.912150000000004     35.767409999999998     36.484300000000005
H      40.479650000000007     36.110210000000002     38.407899999999998
H      36.178050000000006     29.139620000000001     31.908999999999999
H      37.477250000000005     29.059289999999997     31.416000000000004
H      36.992850000000004     30.555450000000000     30.573600000000003
H      35.181450000000005     31.984819999999999     32.584900000000005
H      45.618650000000002     41.549709999999997     39.531800000000004
H      43.044749999999993     30.843299999999992     36.179400000000001
H      41.331350000000000     29.645429999999998     36.166800000000009
H      41.748149999999995     32.767569999999999     36.343699999999998
H      32.686950000000003     44.684710000000003     43.656599999999997
H      43.481850000000001     43.528109999999998     45.426400000000001
H      38.690649999999998     40.721009999999993     35.618200000000002
H      36.348550000000003     39.060110000000002     36.668300000000002
H      37.821249999999999     39.346110000000003     37.513900000000007
H      37.999150000000007     45.986210000000000     39.760900000000007
H      39.936049999999994     46.940710000000003     38.340299999999999
H      35.513850000000005     37.460909999999998     40.342700000000008
H      38.943249999999999     39.240009999999991     39.819299999999998
H      32.000350000000005     40.199010000000001     42.584199999999996
H      30.156349999999996     42.198410000000003     43.089100000000002
H      39.998549999999994     46.334610000000005     36.507999999999996
H      36.854250000000000     46.216209999999997     38.473799999999997
H      36.019350000000003     46.273609999999998     40.172799999999995
H      43.106850000000001     39.415410000000001     39.367199999999997
H      45.077050000000007     39.348309999999991     39.038100000000000
H      45.232750000000003     37.831310000000002     41.203100000000006
H      41.521549999999998     42.649610000000003     43.726100000000002
H      39.253449999999994     36.879209999999993     42.519599999999997
H      40.167349999999999     38.450009999999992     42.868799999999993
H      45.843650000000004     43.477510000000002     40.481999999999999
H      45.707550000000005     45.780609999999996     41.165599999999998
H      43.914950000000005     46.389310000000002     43.612700000000004
H      44.764649999999996     35.912210000000002     39.367800000000003
H      43.133850000000002     34.322049999999997     39.595900000000000
H      40.860750000000003     41.085909999999998     45.010100000000008
N      35.334150000000001     35.052779999999998     38.845799999999997
N      34.795150000000007     44.339810000000000     41.078199999999995
O      36.330150000000003     37.102510000000002     40.148800000000008
O      34.174450000000007     38.224609999999998     42.683300000000003
O      33.066950000000006     34.873370000000001     39.729399999999998
O      32.270649999999996     44.619109999999999     42.845500000000001
O      31.007649999999998     42.377110000000002     43.446100000000001
O      39.593150000000001     43.335810000000002     35.868800000000007
O      40.378449999999994     34.386990000000004     39.852800000000002
O      43.587449999999997     44.445309999999999     45.114400000000003
O      40.468450000000004     40.405909999999992     44.462200000000010
