5

C      37.890555000000006     38.129699999999993     38.002794999999992
H      37.062764999999999     38.629799999999996     38.862774999999999
H      38.066865000000007     37.299700000000001     38.806174999999996
H      38.937235000000001     38.700299999999999     37.685305000000000
H      37.372795000000011     37.730199999999996     37.137225000000001
