46

C      39.143694999999994     37.644999999999996     37.677319999999995
C      39.437564999999992     38.564499999999995     36.384569999999997
C      35.363185000000001     37.567700000000002     35.153719999999993
C      37.892925000000005     37.033599999999993     37.849889999999988
C      38.632605000000012     38.826399999999992     35.340990000000005
C      35.881675000000001     36.701200000000000     36.164249999999996
C      37.097545000000011     37.385000000000005     36.603740000000002
C      37.341245000000001     38.313699999999997     35.508749999999992
C      39.972634999999997     37.522999999999996     38.719160000000002
C      41.355134999999990     37.924800000000005     38.550290000000004
C      41.567034999999990     38.932999999999993     37.479309999999998
C      40.644835000000000     39.417699999999996     36.691199999999995
C      39.771445000000000     36.642899999999997     39.802629999999994
C      40.768535000000000     36.117000000000004     40.652500000000003
C      42.118335000000002     36.541499999999999     40.254980000000003
C      42.471935000000002     37.323599999999999     39.191029999999998
C      38.422135000000011     36.197400000000002     40.233999999999995
C      37.455604999999991     36.280000000000001     39.129350000000002
C      36.107105000000004     36.100700000000003     39.388219999999990
C      35.506525000000011     35.442499999999995     40.515829999999994
C      35.475465000000000     35.328599999999994     36.508939999999996
C      34.186055000000010     35.659099999999995     40.821449999999999
C      40.394435000000001     40.828199999999995     36.202689999999990
C      38.139605000000003     35.942700000000002     41.661659999999998
C      33.437845000000010     34.951499999999996     41.978619999999992
H      34.306435000000008     37.642499999999998     34.807460000000006
H      42.276335000000003     39.729900000000001     37.692359999999994
H      40.665635000000009     35.345600000000005     41.616969999999995
H      43.170635000000004     35.959299999999999     40.276910000000001
H      43.500534999999999     37.671999999999997     39.268270000000001
H      36.020155000000003     34.911500000000004     41.434899999999999
H      35.451775000000012     36.835300000000004     38.675070000000005
H      36.242485000000002     34.433099999999996     36.808419999999998
H      38.505105000000000     39.456400000000002     33.216380000000001
H      33.408844999999999     36.306500000000000     40.233179999999990
H      38.735545000000002     36.302999999999997     42.459119999999999
H      40.592335000000006     42.066800000000001     36.418899999999994
H      41.239635000000007     40.866500000000002     35.278170000000003
H      39.517755000000008     41.048599999999993     35.544469999999990
H      37.421715000000006     35.033000000000001     41.803319999999999
H      34.010435000000001     33.933199999999999     41.971220000000002
H      32.499465000000001     34.311599999999999     41.515799999999999
H      33.185155000000009     35.572299999999998     42.783619999999999
N      36.258894999999995     38.399400000000000     34.757829999999998
O      34.472515000000001     34.900400000000005     36.065590000000000
O      39.082805000000008     39.126199999999997     34.016340000000000
