5

C      38.118849999999995     37.703800000000001     38.104999999999997
H      37.119549999999997     37.301800000000000     38.222699999999996
H      38.516249999999999     37.789700000000011     37.082700000000003
H      38.880450000000003     37.318000000000012     38.917299999999997
H      37.965149999999994     38.698200000000000     38.483699999999999
