42

C      42.317299999999996     38.666149999999995     38.301599999999993
C      37.164500000000004     39.059750000000001     38.647300000000001
C      38.316600000000008     39.892650000000003     38.955100000000002
C      40.561500000000009     35.131349999999998     38.818499999999993
C      41.565400000000004     36.207050000000002     38.542699999999996
C      37.424400000000006     37.677650000000000     38.155600000000000
C      39.557700000000004     39.314749999999997     38.807099999999998
C      39.254300000000001     35.685249999999989     38.698900000000002
C      41.255200000000002     37.562550000000002     38.433700000000002
C      38.646100000000004     36.981049999999996     38.600800000000000
C      39.813200000000009     37.888550000000002     38.631499999999996
C      35.868100000000005     39.682149999999993     38.492600000000003
C      35.761900000000004     41.044449999999991     38.793300000000002
C      36.849800000000002     41.938950000000006     39.133900000000004
C      38.117699999999999     41.367749999999994     39.217899999999993
C      40.958700000000007     33.779750000000000     39.222500000000004
C      43.084199999999996     34.332850000000001     38.432499999999997
C      42.882500000000007     35.643150000000006     38.299100000000003
C      34.559100000000001     39.087749999999993     38.128200000000000
C      33.287700000000001     39.588049999999996     38.517000000000003
C      33.161299999999997     41.020249999999997     38.783000000000001
C      34.372700000000002     41.538049999999998     38.999899999999997
C      36.259500000000003     37.256550000000004     37.341699999999996
C      34.948200000000000     37.608649999999997     38.196199999999997
C      42.271800000000006     39.919849999999990     38.608200000000004
H      43.374500000000005     38.379149999999996     37.845099999999995
H      40.256000000000000     39.995850000000004     39.215699999999998
H      38.529800000000009     34.695350000000005     38.369699999999995
H      36.716200000000001     42.989750000000001     39.169999999999995
H      39.060300000000005     41.960049999999995     39.510799999999996
H      40.200600000000009     33.010249999999999     39.103699999999996
H      43.850800000000000     33.834649999999996     37.927199999999999
H      43.748100000000001     36.220849999999999     37.996100000000006
H      32.538700000000006     39.071349999999995     39.149400000000000
H      32.149200000000000     41.483449999999998     38.343499999999999
H      34.439900000000002     42.558349999999997     39.045699999999997
H      36.347500000000004     37.714549999999996     36.489200000000004
H      35.922700000000006     36.136550000000000     37.157100000000000
H      34.052400000000006     37.061450000000001     37.923200000000001
H      35.349800000000002     37.143349999999998     39.238499999999995
N      42.169200000000004     33.353850000000001     38.857899999999994
O      42.149900000000002     41.117449999999998     38.817699999999995
