45

C      38.225649999999995     36.536549999999991     43.461073499999998
C      36.562550000000002     37.165450000000000     39.249103500000004
C      35.747350000000004     38.457050000000002     39.089533499999987
C      40.003849999999993     38.230249999999991     36.097393499999995
C      39.029450000000004     39.438650000000003     35.746103500000004
C      37.487050000000004     36.670649999999995     38.310343499999988
C      36.158749999999998     39.133450000000003     37.970783499999996
C      39.179749999999999     37.205149999999996     36.647163500000005
C      37.907950000000000     39.741750000000003     36.324323499999998
C      37.860649999999993     37.519649999999992     37.306963499999995
C      37.227150000000002     38.755749999999999     37.245323499999998
C      35.969650000000001     36.172950000000000     40.186143500000000
C      35.617150000000002     36.918049999999994     41.434973499999998
C      34.822849999999995     38.101250000000000     41.364173499999993
C      35.013550000000002     38.970750000000002     40.212143499999996
C      41.059150000000002     38.102150000000002     35.179533499999998
C      41.037649999999999     38.849550000000001     34.058483499999994
C      40.153649999999992     39.837749999999993     33.547883499999998
C      39.416750000000000     40.354949999999995     34.664213499999995
C      35.648849999999996     35.923149999999993     42.614773499999998
C      36.651450000000004     36.551349999999999     43.609473499999993
C      33.728950000000005     38.548749999999991     42.320673499999998
H      38.441949999999999     35.598950000000002     43.120773499999999
H      38.617750000000001     36.672349999999994     44.392373499999991
H      38.624250000000004     37.265749999999997     42.719473499999992
H      35.849049999999998     34.769349999999996     42.189473500000005
H      40.565649999999998     40.335449999999994     31.556326500000001
H      35.631050000000002     40.069049999999990     37.745823500000000
H      39.415049999999994     36.101350000000004     36.767133500000000
H      37.470450000000000     40.627549999999999     35.860213500000000
H      36.383850000000002     35.225249999999996     40.049003499999998
H      34.850349999999999     40.005850000000002     40.517733499999991
H      41.795949999999998     38.588349999999998     33.254623499999994
H      38.828749999999999     41.230650000000004     34.436443499999996
H      34.610550000000003     35.762349999999991     42.989273499999996
H      36.434750000000001     37.605049999999999     44.000773499999994
H      36.386650000000003     35.785649999999990     44.443673500000003
H      39.297749999999994     36.551549999999992     38.921193500000001
H      42.862949999999998     37.720149999999997     35.239603500000001
H      33.137050000000002     39.346849999999989     41.895473499999994
H      34.039450000000002     39.136949999999999     43.271673500000006
H      33.343049999999998     37.836849999999998     43.232473499999998
O      38.556149999999995     35.923650000000002     38.978603500000006
O      42.037150000000004     37.115549999999999     35.389593500000004
O      39.932649999999995     40.397550000000003     32.346523500000004
