8

C      38.635999999999996     38.524749999999990     37.504649999999998
C      37.514800000000001     37.794449999999998     38.191249999999997
H      36.563200000000002     38.468650000000004     38.020450000000004
H      38.062499999999993     38.936849999999993     36.681750000000001
H      39.158900000000003     39.316350000000000     38.068549999999995
H      39.436799999999998     37.757649999999998     37.240050000000004
H      37.492899999999992     36.683650000000000     37.859649999999995
H      37.706799999999994     37.759050000000002     39.318249999999999
