5

C      38.082749999999990     38.178149999999995     38.104549999999996
H      37.510149999999996     38.885750000000002     38.657150000000001
H      38.667349999999999     38.545150000000000     37.339449999999999
H      37.332650000000001     37.864150000000002     37.466149999999999
H      38.332250000000002     37.114249999999998     38.660550000000001
