6

C      37.971399999999988     38.183004999999994     37.396649999999994
C      37.921700000000001     38.067214999999990     38.742150000000002
H      37.294600000000003     38.124585000000010     36.657649999999997
H      38.967799999999997     37.874535000000009     36.816549999999999
H      38.775499999999994     37.816995000000006     39.342350000000003
H      37.032200000000003     38.016885000000002     39.251650000000005
