50

C      39.191999999999993     37.594299999999990     38.258154999999995
C      37.844699999999996     37.888700000000000     37.770915000000002
C      38.301899999999996     41.263800000000003     40.867415000000001
C      39.942399999999999     38.338799999999992     39.221044999999997
C      37.039800000000000     39.018100000000004     38.250695000000007
C      39.437199999999997     40.437899999999985     40.622775000000004
C      37.278799999999997     40.968799999999987     39.994974999999997
C      39.062500000000000     39.478399999999993     39.602115000000005
C      37.668900000000001     39.859400000000008     39.147435000000002
C      39.714899999999986     36.246899999999997     37.962334999999996
C      39.264699999999991     35.457700000000003     36.668745000000001
C      38.109299999999998     35.790999999999997     36.027075000000004
C      37.488499999999995     37.042699999999996     36.559935000000003
C      40.695100000000004     35.525500000000008     38.652275000000003
C      41.192399999999999     34.451499999999996     38.128035000000004
C      41.096899999999998     33.872500000000002     36.866895000000007
C      39.876499999999993     34.299199999999999     36.101375000000004
C      41.458899999999986     36.437399999999997     39.757064999999997
C      40.718199999999996     37.593599999999995     40.272475000000000
C      37.524400000000000     35.039900000000003     34.985655000000001
C      36.176199999999994     35.433700000000002     34.285577000000004
C      35.709699999999998     36.793000000000006     34.802185000000001
C      36.288699999999999     37.481400000000008     35.861265000000003
C      38.241599999999998     33.951200000000000     34.555183000000007
C      35.593200000000003     39.106199999999987     37.663995000000007
C      35.383599999999987     38.889600000000002     36.164585000000002
C      41.270800000000001     38.325199999999995     41.109054999999998
C      34.625799999999998     37.521799999999999     34.127032000000007
C      38.224100000000000     42.578400000000002     41.548935000000000
H      36.331599999999995     41.462000000000003     40.171085000000005
H      42.016599999999997     34.099900000000005     38.745145000000008
H      41.844899999999996     33.143000000000001     36.577915000000004
H      40.916799999999995     35.359499999999997     40.422764999999998
H      35.196800000000003     39.965599999999995     37.882635000000008
H      35.119199999999999     38.226600000000005     38.138055000000001
H      34.410499999999999     39.066800000000001     35.802615000000003
H      35.741099999999996     39.705799999999996     35.445355000000006
H      41.378800000000005     39.418099999999995     40.863815000000002
H      41.365800000000000     38.130599999999987     42.210365000000003
H      34.854599999999998     38.384200000000007     33.583774999999996
H      38.550999999999995     32.454300000000003     33.279375000000002
H      40.341000000000001     40.545799999999986     41.170465000000000
H      38.352399999999996     43.545699999999997     40.733975000000001
H      37.277299999999990     43.076199999999986     41.460285000000006
H      38.570699999999995     42.272700000000000     42.720624999999998
H      42.406600000000005     36.889800000000008     39.360095000000001
N      39.383299999999998     33.698499999999996     35.048165000000004
O      33.593399999999995     37.147400000000005     33.686272900000006
O      37.911999999999999     33.154399999999995     33.496775000000007
O      35.469900000000003     34.778000000000006     33.567874999999994
