5

C      37.888649999999998     38.158574999999999     37.833399999999997
H      38.946150000000003     38.498874999999998     37.341899999999995
H      37.755749999999992     38.899505000000005     38.715199999999996
H      38.063050000000004     37.100494999999995     38.065200000000004
H      37.053849999999997     38.525784999999999     37.284800000000004
