73

C      35.805350000000004     43.778749999999995     40.471399999999988
C      37.380050000000011     43.863649999999993     40.533100000000005
C      36.398550000000000     39.017049999999998     41.156099999999995
C      37.754750000000001     39.109150000000000     40.576099999999997
C      35.142450000000011     42.453049999999990     40.397999999999996
C      38.056850000000011     42.664749999999998     40.293800000000005
C      35.422850000000011     40.043349999999997     40.721400000000003
C      38.444950000000006     40.359850000000002     40.192999999999998
C      36.022150000000011     41.288350000000001     40.464900000000000
C      37.571950000000001     41.360550000000003     40.526499999999984
C      34.997750000000011     44.842950000000002     40.710599999999999
C      36.003150000000005     45.848050000000001     41.165199999999999
C      37.338250000000002     46.175449999999998     40.850399999999993
C      38.074150000000003     45.105849999999990     40.313999999999993
C      36.252050000000011     37.849150000000002     41.996099999999998
C      37.193950000000001     36.759249999999994     42.077399999999997
C      38.370950000000008     36.897549999999995     41.448200000000000
C      38.651350000000008     37.970750000000002     40.432800000000000
C      33.089950000000002     46.174249999999994     41.173999999999992
C      33.928750000000008     46.754049999999992     42.159800000000004
C      35.307050000000004     46.583149999999996     42.289900000000003
C      33.821950000000001     42.438350000000000     39.648799999999994
C      34.056850000000011     39.413249999999998     40.584099999999992
C      33.875650000000007     38.919550000000001     39.189399999999992
C      40.487350000000006     31.316849999999999     37.499499999999998
C      39.103350000000006     30.949649999999998     37.766599999999997
C      39.404049999999998     34.567149999999998     40.787400000000005
C      41.182850000000002     32.147749999999995     38.479199999999992
C      38.448350000000005     31.674049999999998     38.814999999999998
C      40.647550000000010     34.018749999999997     40.345799999999997
C      38.446250000000006     33.636049999999997     40.463700000000003
C      40.478050000000010     33.024950000000004     39.403800000000004
C      38.985950000000003     32.695850000000000     39.509699999999995
C      40.854849999999999     31.033349999999999     36.143599999999992
C      40.051749999999998     29.865349999999996     35.620000000000005
C      38.784150000000011     29.462050000000001     36.067799999999991
C      38.295650000000009     29.826450000000001     37.352199999999996
C      42.190950000000001     31.037549999999996     35.992800000000003
C      42.520750000000007     30.610349999999997     34.489599999999996
C      41.856650000000002     29.625149999999998     33.711899999999993
C      40.624650000000003     29.422550000000001     34.387400000000000
C      42.589050000000000     32.258350000000000     38.084000000000003
C      43.112850000000009     31.398849999999996     37.049999999999997
C      39.335350000000005     35.821050000000000     41.715599999999995
H      40.276850000000010     36.479450000000000     41.579399999999993
H      39.226250000000007     42.526650000000004     40.255099999999999
H      39.624750000000006     40.025050000000000     40.336299999999994
H      37.917450000000002     47.158449999999995     40.926199999999994
H      39.140349999999998     45.126049999999999     39.881799999999998
H      36.802650000000000     35.686349999999997     42.418599999999998
H      39.611850000000004     38.079850000000000     40.001599999999996
H      31.970450000000003     46.085050000000003     41.310799999999986
H      33.196650000000005     47.261550000000000     43.186499999999995
H      35.824950000000001     46.672849999999990     43.291799999999995
H      34.013450000000006     43.242550000000001     39.001599999999996
H      32.964650000000006     37.974550000000001     39.289400000000001
H      35.097450000000009     38.950949999999999     38.501800000000003
H      37.342550000000003     31.658249999999995     38.656700000000001
H      41.499750000000006     34.542249999999996     40.835999999999984
H      37.400649999999999     33.766049999999993     40.532299999999992
H      38.257550000000009     28.738450000000000     35.486400000000003
H      37.443850000000012     29.492950000000000     37.801400000000001
H      42.067650000000000     29.495750000000001     32.708200000000005
H      40.094149999999999     28.869450000000001     33.552300000000002
H      43.286050000000003     32.893749999999997     38.565299999999993
H      44.029550000000000     30.902149999999995     37.234899999999996
H      39.170650000000009     35.443550000000002     42.918499999999995
H      35.234450000000010     37.672950000000000     42.502799999999993
H      33.226150000000004     39.692650000000000     38.533400000000000
N      33.624350000000007     45.146250000000002     40.631199999999993
O      32.689650000000000     42.103749999999998     39.993600000000001
O      33.108550000000008     39.723849999999999     41.309200000000004
O      43.467650000000006     31.100949999999997     33.909599999999998
