5

C      38.269449999999992     37.767349999999993     37.875599999999991
H      37.167349999999999     37.375149999999991     37.987000000000002
H      38.750850000000000     37.285550000000001     37.080100000000002
H      38.832650000000001     37.860650000000000     38.919899999999998
H      38.476650000000006     38.714449999999999     37.316099999999999
