41

C      40.699749999999995     37.243899999999996     37.398999999999987
C      40.891050000000000     37.112600000000000     35.898399999999995
C      36.624050000000004     39.583299999999994     36.485900000000001
C      36.493950000000005     38.784899999999993     35.372599999999991
C      39.624949999999998     37.945200000000000     38.063199999999995
C      40.014749999999999     37.931299999999993     34.992199999999997
C      37.665750000000003     38.205699999999993     34.706599999999995
C      38.485050000000001     38.281199999999998     37.082499999999996
C      38.816850000000002     38.086900000000000     35.659400000000005
C      41.590549999999993     36.257599999999996     37.980300000000000
C      42.747750000000003     35.545199999999994     37.398300000000006
C      42.676349999999999     35.668099999999995     36.032499999999999
C      41.619849999999992     36.180999999999997     35.235200000000006
C      35.329849999999993     40.198300000000003     36.860499999999988
C      34.020150000000001     40.345799999999997     36.290699999999987
C      34.092350000000003     39.935699999999997     34.903899999999993
C      35.106150000000000     38.829499999999996     34.605800000000002
C      39.840450000000004     38.639399999999995     39.328900000000004
C      41.827449999999992     36.670199999999994     40.385300000000001
C      41.065149999999996     36.180700000000002     39.346499999999992
C      42.806350000000002     36.995499999999993     41.166200000000003
C      32.781050000000000     40.286899999999989     34.429299999999998
H      40.173549999999999     35.770899999999997     33.876599999999996
H      37.758949999999999     37.531099999999995     33.754000000000005
H      43.779550000000000     35.388799999999989     35.596999999999994
H      35.233350000000002     40.745799999999988     37.694800000000001
H      33.163249999999998     40.977099999999993     36.798900000000003
H      40.919349999999994     38.895799999999994     39.700199999999995
H      40.080949999999994     36.570300000000003     39.548299999999998
H      40.124250000000004     37.918199999999999     33.898700000000005
H      43.269749999999995     34.874299999999991     39.025099999999995
H      43.793349999999997     36.689399999999992     40.795000000000002
H      32.393850000000000     41.237300000000005     34.919600000000003
H      39.054949999999998     39.343900000000005     39.660399999999996
H      32.206650000000003     39.925999999999988     33.605599999999995
H      43.466149999999999     38.185900000000004     42.394400000000005
N      37.545749999999991     39.079700000000003     37.287099999999995
O      41.128550000000004     35.641499999999994     34.043499999999995
O      35.017050000000005     38.038899999999998     33.723100000000002
O      43.589949999999995     34.762699999999995     38.079800000000006
O      42.703150000000001     37.566000000000003     42.375399999999999
