6

C      38.167699999999996     37.601849999999992     37.588549999999991
C      37.896259999999998     38.400449999999999     38.699849999999991
H      38.808949999999996     36.724250000000005     37.601849999999999
H      38.003929999999997     38.016949999999994     36.684250000000006
H      37.143410000000003     39.275749999999995     38.720450000000000
H      38.856589999999997     38.587649999999996     39.315749999999994
