5

C      38.018199999999993     38.121999999999993     37.928149999999988
H      38.717199999999998     37.159300000000002     37.864949999999993
H      37.282800000000002     37.342600000000004     37.617149999999995
H      37.896599999999999     38.840699999999998     37.278350000000003
H      38.228500000000004     38.736000000000004     38.721649999999997
