6

C      38.555899999999994     37.630849999999995     37.632899999999992
C      37.764399999999995     38.429950000000005     38.260399999999997
H      38.987799999999993     36.761749999999999     37.892400000000002
H      38.771999999999991     37.514550000000000     36.559000000000005
H      37.726399999999998     38.421250000000001     39.440999999999995
H      37.012200000000007     39.238250000000001     37.807400000000001
