17

C      39.658949999999990     38.864949999999993     37.116199999999992
C      38.510549999999995     39.716449999999995     37.174900000000008
C      37.220749999999995     39.142650000000003     37.297799999999995
C      37.287149999999990     37.710650000000001     37.578299999999999
C      38.517350000000000     36.855950000000000     37.762500000000003
C      39.759250000000002     37.494650000000000     37.308700000000002
C      38.305850000000000     35.413650000000004     38.274500000000003
C      35.940150000000003     37.299150000000004     37.270700000000005
H      40.638150000000003     39.289549999999998     37.043800000000005
H      37.290950000000002     35.104849999999999     38.581999999999994
H      38.620449999999998     41.066249999999997     36.856800000000007
H      36.571150000000003     39.835050000000003     37.302499999999995
H      40.998449999999998     37.060950000000005     37.459699999999998
H      38.939349999999990     35.729450000000000     39.207099999999997
H      39.297849999999990     34.933750000000003     37.724100000000007
H      35.001550000000002     37.820349999999998     37.584100000000007
H      35.864449999999998     36.391249999999999     36.792900000000003
