5

C      38.051299999999998     38.354949999999988     37.866349999999997
H      36.960400000000007     38.439049999999995     37.608450000000005
H      39.039599999999993     38.169850000000004     37.258150000000001
H      38.128299999999996     38.790450000000000     38.741849999999999
H      37.760500000000008     37.209550000000000     38.294349999999994
