8

C      38.501349999999995     37.656099999999995     38.183049999999994
C      37.251150000000003     38.557199999999995     37.769850000000005
H      38.369250000000001     36.655000000000001     37.809750000000008
H      39.533749999999998     38.015400000000000     37.374750000000006
H      38.525550000000003     37.707300000000004     39.325049999999990
H      36.466250000000002     38.093400000000003     38.132050000000007
H      36.995249999999999     39.344999999999999     38.562349999999995
H      37.230750000000000     38.779600000000002     36.674950000000010
