50

C      37.179679999999983     39.257949999999994     37.187049999999992
C      36.352379999999997     38.149549999999998     37.643450000000001
C      41.268039999999999     36.656950000000002     37.351450000000000
C      40.515860000000004     35.791449999999990     38.152049999999996
C      38.681280000000001     39.506949999999996     37.471649999999997
C      36.990780000000001     37.317850000000000     38.673349999999999
C      40.818600000000004     38.013050000000000     37.621849999999995
C      39.066953400000003     35.968449999999997     38.367949999999993
C      39.415309000000001     38.395949999999999     37.838549999999998
C      38.555380000000000     37.279750000000000     38.277450000000002
C      36.560580000000002     40.399049999999995     36.607950000000002
C      35.484079999999992     39.969149999999992     35.854949999999995
C      34.693379999999991     38.836050000000000     35.974449999999997
C      35.047579999999996     37.918049999999994     37.089550000000003
C      38.819879999999991     40.951149999999991     37.238349999999997
C      42.997760000000000     38.963349999999998     37.188350000000000
C      37.541979999999995     41.658749999999998     36.529249999999998
C      36.516179999999991     36.469850000000001     39.822950000000006
C      36.427579999999992     36.543450000000000     41.308949999999996
C      34.303479999999993     36.771349999999998     37.199050000000000
C      40.068189999999994     41.131349999999998     36.268749999999997
C      32.905079999999998     36.399749999999997     37.019050000000000
C      41.878750000000011     39.045850000000002     37.860450000000000
C      34.061479999999989     38.234349999999999     34.717849999999999
C      42.418990000000008     34.301749999999998     37.994749999999996
H      38.362979999999993     35.207649999999994     38.633650000000003
H      38.891379999999998     41.552949999999996     38.120850000000004
H      38.204979999999992     42.447249999999990     36.112249999999996
H      43.780619999999999     39.725549999999998     37.393249999999995
H      43.680140000000009     38.250149999999998     36.624049999999997
H      37.286479999999997     42.575749999999999     37.253450000000001
H      35.916279999999993     35.530949999999997     39.767949999999999
H      35.749079999999992     35.781450000000000     42.032449999999997
H      37.162379999999999     36.960250000000002     41.979249999999993
H      34.664479999999998     36.002449999999996     37.812150000000003
H      40.066320000000005     40.007149999999996     35.960049999999995
H      34.743679999999998     40.541049999999991     33.967550000000003
H      42.992590000000000     35.210349999999998     38.051249999999996
H      32.307679999999991     35.622650000000000     37.727249999999991
H      32.219380000000001     37.155450000000002     36.748249999999992
H      41.588610000000003     39.736150000000002     38.568150000000003
H      34.865179999999995     37.825550000000000     34.017649999999996
H      33.614979999999981     37.171849999999999     34.739049999999999
H      33.005879999999991     38.749249999999996     34.451749999999997
H      42.630099999999999     33.424250000000001     38.732050000000001
H      41.930940000000000     33.645049999999998     37.085349999999991
H      42.109960000000001     36.272349999999996     36.685150000000000
O      40.915359999999993     41.863450000000000     36.724849999999996
O      35.056579999999997     40.893450000000001     34.887549999999990
O      40.889410000000005     34.666649999999997     38.595050000000001
