5

C      37.997500000000002     38.214849999999998     38.107505000000003
H      37.854100000000010     38.902950000000004     37.216374999999999
H      38.745399999999997     38.688050000000004     38.783625000000001
H      37.254600000000003     38.534350000000003     38.753385000000009
H      38.079400000000007     37.097049999999996     37.976095000000001
