9

C      38.512689999999992     38.013399999999990     38.077900000000000
C      38.251770000000008     37.986699999999999     36.625099999999996
C      37.269550000000010     37.851700000000008     38.940900000000006
H      39.462069999999997     38.074999999999989     38.694200000000002
H      38.876580000000004     38.786700000000010     36.140100000000004
H      38.622160000000008     37.256399999999999     36.053700000000006
H      36.537930000000003     37.128100000000003     38.512700000000002
H      37.751759999999990     37.724600000000009     39.946299999999994
H      36.808580000000006     38.871899999999997     39.017200000000003
