79

C      37.724949999999993     36.765135000000001     40.529249999999990
C      39.107250000000001     36.855934999999988     41.069949999999992
C      39.858949999999993     32.265834999999996     35.134349999999998
C      41.138849999999998     32.578434999999999     35.673250000000010
C      37.278350000000003     35.769435000000001     39.540249999999986
C      39.942749999999997     35.711934999999997     41.010950000000008
C      38.631950000000003     32.711834999999994     35.919350000000009
C      41.369550000000004     33.089834999999994     37.057550000000006
C      37.924849999999999     33.881634999999989     38.069050000000004
C      40.482150000000004     34.178235000000001     39.045749999999998
C      38.222250000000003     34.720434999999995     39.188150000000007
C      39.526650000000004     34.838034999999991     39.837050000000005
C      38.786349999999999     33.588034999999991     37.024050000000003
C      40.240949999999998     33.656634999999994     37.727249999999998
C      36.704350000000005     37.558734999999999     41.176949999999991
C      37.094850000000001     38.408634999999990     42.243649999999988
C      38.451349999999998     38.713634999999996     42.501249999999999
C      39.499450000000003     37.894435000000001     42.032049999999998
C      39.761550000000000     31.900435000000005     33.846249999999998
C      40.668550000000003     31.912034999999992     32.876350000000002
C      42.023150000000001     32.014735000000002     33.355449999999998
C      42.215349999999994     32.225034999999991     34.756550000000004
C      35.274450000000002     37.302234999999996     40.745649999999998
C      34.119650000000000     38.037634999999995     41.196050000000000
C      34.853750000000005     39.503434999999996     41.902749999999997
C      36.106649999999995     39.392334999999989     42.688350000000000
C      35.165550000000003     36.527334999999994     39.548749999999998
C      36.158550000000005     35.964034999999996     38.645750000000007
C      36.082750000000004     39.151534999999996     44.248650000000012
C      40.854250000000000     38.327635000000001     42.620049999999992
C      37.270050000000005     32.476635000000002     35.552250000000001
C      38.453650000000003     43.493305000000007     40.647550000000010
C      39.369650000000000     44.265875000000008     41.248750000000001
C      37.822050000000004     42.572937000000010     41.700550000000007
C      37.397250000000000     41.591234999999998     43.709750000000000
C      38.030449999999995     42.734476000000001     43.202650000000006
C      38.798050000000003     43.921175000000005     43.460250000000002
C      36.918750000000003     41.493134999999995     41.489249999999998
C      36.656550000000003     40.792634999999990     42.664349999999999
C      38.052250000000001     43.734465000000000     39.151750000000007
C      33.753750000000004     36.573134999999994     42.899050000000003
C      42.765550000000005     32.179034999999999     31.950149999999997
H      42.669949999999993     33.179234999999991     37.427650000000000
H      36.680450000000000     33.463034999999991     38.205350000000010
H      41.270350000000001     34.353335000000001     39.623850000000004
H      38.623450000000005     39.547934999999995     43.461150000000004
H      40.265450000000001     31.693334999999994     31.822250000000000
H      43.153449999999999     32.815934999999996     34.946449999999999
H      33.515450000000001     38.159134999999992     40.163650000000004
H      34.305750000000003     36.233734999999996     38.940650000000005
H      35.839150000000004     35.327334999999991     37.764949999999999
H      35.986449999999998     38.027334999999994     43.976749999999996
H      41.118049999999997     34.362434999999991     41.779949999999999
H      40.713850000000001     39.272934999999990     43.320950000000011
H      41.543950000000002     38.421835000000002     41.554349999999999
H      41.440249999999999     37.367934999999989     43.048349999999999
H      37.965249999999997     31.486134999999994     32.957149999999999
H      36.423550000000006     33.315235000000001     35.505850000000009
H      37.205350000000003     31.488135000000003     35.100350000000006
H      39.786149999999999     44.996665000000007     40.729849999999999
H      38.758950000000006     44.455855000000000     44.523850000000010
H      37.186750000000004     41.468134999999990     40.342350000000010
H      34.806450000000005     40.128634999999989     41.070849999999993
H      37.618750000000006     41.050434999999993     44.566349999999986
H      38.868150000000000     44.208224999999999     38.498450000000005
H      36.909450000000000     44.265485000000012     39.239450000000005
H      34.365050000000004     35.852035000000001     42.431750000000008
H      32.731750000000005     36.098635000000002     43.428049999999999
H      34.262050000000002     36.884135000000001     44.086150000000004
H      42.132650000000005     32.597034999999991     31.159850000000002
H      43.268249999999995     31.003334999999996     31.610250000000001
H      43.133850000000002     33.336635000000001     32.083849999999998
H      34.328350000000000     39.869734999999991     42.761149999999986
H      37.939150000000005     42.702671999999993     38.667950000000005
N      39.433850000000000     44.575365000000005     42.554049999999989
O      35.070350000000005     39.492634999999993     44.840149999999994
O      33.312650000000005     37.603434999999990     42.272750000000002
O      38.604250000000000     31.298134999999998     33.658749999999998
O      41.070750000000004     35.432434999999998     41.711350000000010
