9

C      36.935199999999995     37.671349999999997     37.589950000000002
C      37.916399999999996     38.159250000000000     38.399950000000011
C      39.356199999999987     37.989550000000001     37.834450000000011
H      36.034999999999997     37.320050000000002     37.997950000000010
H      36.830100000000002     37.014749999999999     36.567550000000004
H      37.457099999999997     38.500650000000000     39.432449999999996
H      39.112600000000000     37.620649999999998     36.779250000000012
H      39.965000000000003     37.123249999999999     38.291750000000008
H      39.691699999999997     38.985250000000001     37.785850000000011
