9

C      37.169449999999998     37.538599999999995     38.368499999999990
C      38.195150000000012     38.415399999999998     37.609400000000001
H      37.696150000000003     37.374099999999999     39.344000000000001
H      39.408850000000001     36.935800000000000     38.924599999999998
H      36.119450000000001     38.100099999999998     38.380899999999990
H      38.079050000000009     37.914200000000001     36.655999999999999
H      37.246150000000000     36.411900000000003     38.322600000000001
H      37.940049999999999     39.588099999999997     37.325400000000002
S      39.880549999999999     37.971799999999995     38.007300000000001
