5

C      38.175150000000002     38.122749999999996     38.122169999999997
H      38.132149999999996     38.659949999999995     37.131439999999998
H      38.400649999999999     38.871549999999999     38.868560000000002
H      38.822649999999996     37.128450000000001     37.888639999999995
H      37.177350000000004     37.519050000000000     38.264449999999997
