7

C      37.873549999999994     38.733649999999997     39.044749999999993
C      37.712049999999991     36.826949999999997     37.707349999999998
H      37.276749999999993     39.544849999999997     39.285350000000001
H      38.846650000000004     38.486949999999993     39.390850000000000
H      38.285350000000001     36.488150000000005     38.756450000000001
N      37.153349999999996     38.063549999999992     38.339350000000003
O      37.558749999999996     36.455150000000003     36.609150000000000
