44

C      38.368949999999984     35.160099999999993     42.283199999999994
C      39.543749999999989     38.248300000000000     39.451700000000002
C      39.859650000000002     39.255099999999992     38.358699999999999
C      36.042850000000001     36.781799999999997     36.320100000000011
C      36.635549999999995     37.553699999999999     35.237500000000011
C      38.471549999999993     37.386600000000001     39.362099999999998
C      39.242149999999995     39.335200000000000     37.117400000000004
C      36.430949999999996     37.103899999999996     37.677300000000002
C      37.702649999999991     38.351799999999997     35.433100000000003
C      37.576949999999997     37.637000000000000     38.041100000000000
C      38.129949999999994     38.473799999999990     36.793700000000001
C      40.302249999999987     38.056299999999993     40.590500000000006
C      41.441949999999991     38.953399999999995     40.834200000000010
C      41.578249999999997     40.285600000000002     39.888300000000001
C      40.799049999999994     40.237399999999994     38.728000000000009
C      35.109949999999998     35.742999999999988     35.879600000000011
C      34.837649999999996     36.776499999999992     33.841300000000004
C      35.867350000000002     37.670099999999998     33.972700000000003
C      39.824649999999991     37.289999999999999     41.732900000000001
C      40.674049999999994     37.039499999999997     42.957500000000010
C      41.554249999999996     38.074499999999993     43.117300000000000
C      42.105749999999986     38.773299999999992     41.958100000000002
C      37.778350000000003     36.711999999999996     40.412000000000006
C      38.711449999999999     36.466599999999993     41.586900000000000
C      36.273550000000000     38.862600000000000     32.992699999999999
H      35.554749999999999     39.851199999999992     33.235200000000006
H      37.898349999999994     34.580399999999997     41.621400000000008
H      37.980549999999994     35.435399999999994     43.293999999999997
H      39.313850000000002     40.238199999999999     36.383499999999998
H      35.793049999999994     36.860100000000003     38.396900000000002
H      37.823349999999991     38.959699999999998     34.610900000000001
H      41.246150000000000     41.006500000000003     37.884799999999998
H      34.510349999999988     35.144999999999996     36.698000000000008
H      40.163349999999994     36.466899999999988     43.753299999999996
H      41.930449999999993     38.319899999999997     43.972600000000000
H      42.526449999999997     39.660600000000002     42.354900000000001
H      36.774249999999995     36.149799999999999     40.268000000000001
H      33.473550000000003     36.141399999999997     32.527400000000000
H      36.058949999999996     38.106399999999994     32.027400000000000
H      37.168949999999995     39.388199999999998     33.347900000000010
H      39.311849999999993     34.719699999999996     42.790300000000002
N      34.617149999999995     35.739800000000002     34.665399999999998
O      34.210650000000001     36.858199999999997     32.676800000000000
O      41.841149999999999     41.419600000000003     40.204100000000011
