8

C      38.171499999999995     37.238799999999991     37.957849999999993
C      38.019900000000000     38.771200000000000     38.021949999999990
H      39.154899999999998     36.899299999999997     37.695150000000012
H      37.778999999999996     36.532499999999999     37.452550000000002
H      38.193500000000000     36.944499999999998     38.854649999999992
H      36.845100000000002     38.527400000000000     38.001850000000005
H      38.291799999999995     39.467500000000001     38.611750000000001
H      37.960299999999997     39.401200000000003     37.145350000000008
