6

C      37.533649999999994     38.004049999999992     37.435149999999993
C      38.214950000000002     38.198850000000007     38.641049999999993
H      36.984949999999998     38.767949999999999     36.944650000000010
H      37.438450000000003     36.911749999999998     37.057150000000007
H      38.519149999999996     39.088250000000002     38.889150000000015
H      39.015050000000002     37.608050000000006     39.055349999999990
