6

C      38.144599999999997     37.573749999999990     37.517550000000000
C      38.019099999999995     38.466349999999998     38.469549999999998
H      39.133200000000002     37.218649999999997     37.511449999999996
H      37.345399999999998     36.904150000000001     37.063450000000003
H      38.885700000000000     39.095849999999999     38.936549999999997
H      36.866799999999998     38.559649999999998     38.372850000000000
