10

C      39.350600000000000     38.886649999999989     38.469899999999996
C      37.326999999999998     37.741550000000004     37.798299999999998
C      36.734099999999998     36.729849999999999     37.255700000000004
C      37.852900000000005     38.896849999999986     38.382400000000004
H      39.224600000000009     38.426149999999993     39.553399999999996
H      39.638700000000000     39.959850000000003     38.546599999999998
H      40.106600000000000     38.113649999999993     37.996399999999994
H      35.893400000000000     37.134249999999994     36.446600000000004
H      37.010500000000008     36.040149999999997     36.506799999999998
H      37.290599999999998     39.668549999999982     39.106099999999998
