5

C      38.074350000000010     38.153199999999991     37.835344999999990
H      37.158050000000003     38.719899999999996     37.864134999999990
H      37.968550000000008     37.280100000000004     37.281884999999996
H      38.841949999999997     38.475200000000001     37.070535000000000
H      38.296149999999997     37.978500000000004     38.929465000000000
