25

C      39.126349999999995     36.702199999999991     39.321449999999999
C      35.913750000000000     39.678700000000006     39.439750000000004
C      38.469250000000002     37.557900000000004     38.314750000000004
C      38.785949999999993     37.925700000000006     41.213949999999997
C      36.282250000000005     38.793799999999990     38.403649999999999
C      36.840550000000000     39.723900000000000     40.527349999999998
C      37.504649999999998     38.202700000000007     39.071349999999995
C      37.797750000000001     38.696899999999999     40.422650000000004
C      39.973949999999995     37.757799999999989     34.746750000000006
C      37.152950000000004     37.980900000000005     36.092250000000007
C      36.102749999999993     38.505900000000011     36.944950000000006
C      39.684150000000002     37.136499999999998     35.973150000000004
C      38.379049999999999     37.298500000000004     36.834149999999994
H      35.097050000000003     40.446299999999994     39.417949999999990
H      36.768149999999999     40.332299999999989     41.407049999999998
H      40.902949999999997     37.221200000000010     34.433650000000000
H      39.438350000000000     38.350500000000011     33.865750000000006
H      37.312150000000003     38.452300000000008     35.096149999999994
H      35.552250000000001     39.123699999999999     36.242750000000001
H      40.221249999999998     35.875900000000001     38.084850000000003
H      40.402450000000002     36.557699999999997     36.620649999999998
H      38.382850000000005     36.109600000000000     36.629249999999999
N      39.228849999999994     36.837500000000006     40.516249999999999
O      39.381450000000001     38.466000000000008     42.134249999999994
O      39.691549999999992     35.553700000000006     38.720849999999999
