35

C      37.303399999999996     38.421999999999997     37.214099999999988
C      38.409000000000006     39.174000000000007     37.583600000000004
C      40.569000000000003     35.447700000000005     36.035200000000003
C      37.257300000000001     36.964600000000004     36.764899999999997
C      39.779899999999998     38.529400000000003     37.231000000000009
C      39.211499999999987     35.180200000000006     35.976600000000005
C      38.549799999999991     36.380800000000001     36.528800000000004
C      39.771299999999997     37.204899999999995     36.446799999999996
C      36.116000000000000     38.686100000000003     37.896200000000007
C      35.833900000000000     39.838800000000006     38.845900000000000
C      37.104599999999991     40.661400000000000     38.898899999999998
C      38.378600000000006     40.212700000000005     38.542699999999996
C      34.951300000000003     37.765100000000004     37.892499999999998
C      33.821299999999994     37.980300000000007     38.767200000000003
C      33.734399999999994     39.024899999999995     39.636499999999998
C      34.682599999999994     40.113499999999995     39.608799999999988
C      36.079800000000006     36.149800000000006     36.518100000000004
C      35.064799999999991     36.529300000000006     37.325100000000006
C      40.924199999999999     39.152500000000003     37.287000000000006
C      39.728099999999998     40.799500000000002     39.180700000000002
C      42.111899999999991     39.533500000000004     36.857200000000006
H      41.268600000000006     34.633299999999998     35.857700000000008
H      38.638199999999998     34.100700000000003     35.704300000000003
H      37.203100000000006     41.569399999999995     39.368200000000002
H      32.833699999999993     37.368200000000002     38.496899999999997
H      32.833200000000005     39.277399999999993     40.007400000000004
H      34.538700000000006     41.041199999999996     40.295699999999997
H      36.135700000000000     35.153500000000001     36.111800000000002
H      34.251099999999994     35.838899999999995     37.458699999999993
H      40.876899999999992     40.820400000000006     38.607500000000002
H      39.491799999999998     40.846600000000002     40.114400000000003
H      39.593800000000002     41.899299999999997     39.003999999999991
H      42.175399999999996     39.472399999999993     35.809899999999999
H      43.166799999999995     40.240700000000004     37.017800000000008
N      40.913299999999992     36.631300000000003     36.181399999999996
