5

C      37.702699999999993     37.973299999999995     37.814949999999996
H      38.745500000000000     38.088399999999993     37.511750000000006
H      37.254500000000000     37.988100000000003     38.783050000000003
H      37.260399999999997     37.129599999999996     37.358450000000005
H      37.451799999999999     38.870400000000004     37.216949999999997
