5

C      37.646249999999995     37.783349999999992     37.999449999999996
H      37.325150000000001     38.912250000000000     37.703250000000004
H      38.755449999999996     38.118350000000000     38.274150000000006
H      37.579550000000005     37.087750000000000     37.093850000000003
H      37.244550000000004     37.278649999999999     38.906149999999997
