6

C      37.854519999999994     38.697249999999997     37.897849999999998
C      38.146230000000003     37.309249999999992     38.157449999999997
H      37.359129999999993     39.302850000000007     38.635250000000006
H      37.595849999999999     36.723749999999995     38.980249999999998
H      38.640870000000007     36.697149999999993     37.464250000000000
H      38.045320000000004     39.156149999999997     37.019750000000002
