5

C      38.129334999999990     37.985810000000001     37.940349999999995
H      37.134315000000001     38.604740000000007     37.199750000000002
H      37.650224999999992     37.822090000000003     38.800249999999998
H      38.619924999999988     38.713920000000002     38.706449999999997
H      38.865684999999999     37.286079999999998     37.586750000000002
