31

C      37.001399999999990     37.870649999999998     39.239649999999997
C      37.219299999999997     39.284750000000003     38.906149999999997
C      35.497599999999998     38.039050000000003     34.758349999999993
C      36.354700000000001     37.057450000000003     38.325149999999994
C      37.203699999999991     39.662450000000000     37.517849999999996
C      35.216799999999999     37.232550000000003     35.865849999999995
C      36.026400000000002     37.653449999999992     36.970150000000004
C      36.636999999999993     38.888950000000001     36.451850000000007
C      37.341699999999996     37.531749999999995     40.601250000000007
C      38.504799999999996     38.385449999999992     41.199950000000001
C      38.795600000000000     39.745249999999999     40.730449999999990
C      37.843600000000002     40.283449999999995     39.812649999999991
C      36.310200000000002     35.688150000000000     38.080550000000002
C      36.489200000000004     34.586450000000006     38.949650000000005
C      36.526599999999995     36.563549999999999     41.323049999999995
C      38.323799999999991     41.701449999999994     39.584050000000005
C      39.866699999999994     40.645050000000005     41.308049999999994
H      35.317799999999998     37.917350000000006     33.632750000000001
H      35.064399999999999     36.259050000000002     35.785849999999996
H      36.195599999999992     35.556950000000001     37.007549999999995
H      36.609599999999993     34.513850000000005     40.059150000000002
H      36.472400000000000     33.513050000000000     38.614950000000007
H      36.807499999999997     36.052250000000008     42.367249999999999
H      35.644499999999994     35.831350000000008     41.063050000000004
H      37.800499999999992     40.614250000000006     37.009150000000005
H      37.718399999999995     42.477549999999994     39.029650000000004
H      38.822899999999990     42.486950000000000     40.174750000000003
H      39.929699999999990     41.592550000000003     40.788550000000001
N      36.200399999999995     39.008050000000004     35.197450000000003
O      40.935600000000001     40.367950000000000     41.793850000000006
O      39.022500000000001     38.021049999999995     42.259150000000005
