6

C      37.868349999999992     37.808849999999993     38.564949999999996
C      38.099549999999994     38.465049999999998     37.435949999999998
H      38.707549999999991     38.068849999999998     39.195149999999998
H      37.043349999999997     37.053649999999998     38.632249999999999
H      38.956650000000003     38.946350000000002     37.043250000000000
H      37.192749999999990     38.631449999999994     36.804850000000002
