44

C      38.280349999999991     36.496584999999996     38.080969999999986
C      36.918050000000008     36.809505000000001     37.639579999999995
C      37.684150000000002     40.897984999999991     40.496179999999995
C      38.759850000000000     37.468535000000003     39.072299999999991
C      36.154949999999999     37.797415000000001     38.312279999999994
C      38.580950000000001     39.761225000000010     40.226369999999996
C      36.439450000000008     40.348685000000003     39.739769999999993
C      38.014150000000001     38.767775000000000     39.426889999999993
C      36.717050000000000     38.956564999999998     39.150299999999987
C      39.253349999999998     35.539755000000000     37.519639999999995
C      38.488150000000005     34.535134999999997     36.823829999999994
C      37.128250000000008     34.651655000000005     36.372039999999991
C      36.376149999999996     35.750195000000005     36.837399999999995
C      40.540849999999999     35.276764999999997     38.386309999999987
C      41.295650000000009     34.028505000000010     38.438549999999992
C      40.690149999999996     33.201335000000000     37.458009999999994
C      39.527749999999997     33.457295000000002     36.822909999999986
C      40.958550000000002     36.081964999999997     39.580439999999996
C      39.932749999999999     37.066935000000001     39.783699999999996
C      40.277949999999997     38.016055000000009     40.826049999999995
C      39.738450000000000     39.256054999999989     40.994969999999988
C      37.630549999999999     42.261685000000000     40.783579999999994
C      35.087349999999994     35.796824999999998     36.070949999999996
C      34.596249999999998     34.588525000000004     35.066358999999991
H      35.050250000000005     37.907544999999999     38.242769999999993
H      36.097149999999999     41.016985000000005     38.880009999999984
H      35.572850000000003     40.383164999999991     40.484149999999993
H      36.710850000000008     33.986045000000004     35.633869999999987
H      41.178449999999998     32.322015000000007     37.001089999999991
H      39.212649999999996     32.958624999999998     35.808509999999991
H      42.083949999999994     36.434215000000009     39.801889999999993
H      41.049650000000000     37.693624999999997     41.427019999999992
H      40.347350000000006     39.928545000000000     41.825449999999996
H      42.471450000000004     32.776655000000005     39.515439999999991
H      35.397050000000007     42.664484999999999     40.322629999999990
H      38.574349999999995     42.585684999999998     41.158659999999990
H      35.104150000000004     36.678285000000002     35.400399999999998
H      34.194950000000006     35.731675000000010     36.969899999999996
H      33.528549999999996     35.138925000000000     34.708094999999993
H      35.062449999999998     34.496335000000002     34.174550000000004
H      34.356250000000003     33.641505000000009     35.498479999999986
H      36.796149999999997     43.677984999999993     39.395839999999993
N      36.539950000000005     43.142985000000010     40.436869999999992
O      42.393149999999999     33.784424999999999     39.110779999999991
