56

C      39.516249999999992     34.058949999999996     34.761249999999990
C      40.403750000000002     36.515250000000002     39.523449999999997
C      40.985650000000000     37.744649999999993     40.043149999999997
C      36.591850000000001     39.234750000000005     37.687250000000006
C      37.494749999999996     40.347850000000001     37.892550000000000
C      39.343049999999998     36.461449999999999     38.612349999999992
C      40.488950000000003     38.837450000000004     39.449950000000001
C      37.088449999999995     37.857849999999999     37.898250000000004
C      38.857349999999997     40.110249999999994     38.341549999999998
C      38.545749999999998     37.616750000000003     38.200649999999996
C      39.379149999999989     38.776749999999993     38.585450000000009
C      41.099049999999998     35.221150000000002     39.748249999999999
C      42.123649999999998     35.230650000000004     40.816150000000007
C      42.797449999999998     36.463350000000005     41.263050000000007
C      42.445549999999997     37.644649999999999     40.508850000000010
C      35.266750000000002     39.748250000000006     37.725850000000008
C      34.906149999999997     41.110050000000001     37.510249999999985
C      35.783349999999999     42.087649999999996     37.346450000000004
C      37.243150000000000     41.673850000000002     37.108449999999991
C      40.772649999999992     34.118650000000002     38.964249999999993
C      41.746749999999999     32.911550000000005     39.128950000000003
C      42.488049999999994     32.781250000000000     40.375150000000005
C      42.794049999999991     34.005350000000000     41.108750000000001
C      39.918849999999992     34.217649999999999     37.970449999999985
C      39.064350000000005     35.341050000000003     37.652050000000003
C      38.192450000000001     35.310450000000003     36.477050000000006
C      36.268649999999994     36.932650000000002     38.480050000000006
C      34.402050000000003     38.646949999999997     38.095849999999999
C      34.879149999999996     37.215850000000003     38.583350000000010
C      38.380949999999991     42.350050000000003     36.710449999999994
C      34.221950000000000     36.258150000000001     39.221849999999989
C      33.072350000000000     38.981949999999998     38.186450000000008
C      38.395249999999997     34.117750000000001     35.549249999999986
C      35.368150000000000     43.517650000000003     37.157350000000008
H      36.843950000000000     36.027549999999998     38.698549999999997
H      35.084049999999998     44.197749999999999     36.074149999999989
H      39.644549999999995     33.177449999999993     33.943750000000009
H      40.399349999999998     34.948550000000004     34.901849999999996
H      33.151449999999997     36.191549999999992     39.465749999999986
H      40.957650000000001     39.770650000000003     39.786150000000006
H      39.498049999999999     40.950150000000001     38.524850000000001
H      43.609349999999999     36.779549999999993     42.044049999999984
H      43.137050000000002     38.456049999999998     40.930449999999993
H      33.769449999999999     41.510450000000006     37.707549999999998
H      41.742949999999993     31.940050000000006     38.634950000000003
H      42.243549999999999     31.802250000000001     40.989649999999997
H      43.387050000000002     33.981850000000001     42.056249999999991
H      39.913349999999994     33.412250000000000     37.266949999999994
H      37.338750000000005     35.888450000000006     36.191850000000002
H      34.797550000000001     35.538949999999993     39.626749999999987
H      32.390650000000001     38.186749999999996     38.549950000000010
H      32.734049999999996     40.049650000000000     37.765550000000005
H      37.529949999999992     33.168950000000002     35.622349999999997
H      34.256349999999998     43.430050000000001     37.373049999999992
H      35.728849999999994     44.100750000000005     37.980749999999986
O      39.221550000000001     42.882650000000005     36.066449999999989
