34

C      37.734199999999994     38.619749999999996     39.082649999999994
C      38.123899999999999     39.486350000000002     37.939750000000004
C      37.820600000000006     34.709950000000006     36.594049999999989
C      37.773600000000002     35.384249999999994     35.356949999999998
C      38.291500000000006     37.284250000000000     38.966650000000001
C      38.084599999999995     38.998450000000005     36.494050000000001
C      37.740700000000004     36.865849999999995     35.412149999999997
C      38.379200000000004     36.586749999999995     37.676450000000003
C      38.291300000000000     37.443950000000001     36.557949999999998
C      37.493600000000001     39.118349999999992     40.453649999999996
C      37.573400000000007     40.480049999999991     40.651649999999997
C      37.647000000000006     41.355849999999990     39.519449999999999
C      38.043499999999995     40.902850000000001     38.152249999999995
C      38.080000000000005     36.480050000000006     40.160849999999996
C      37.549400000000006     38.303550000000001     41.696550000000002
C      37.985400000000006     36.966750000000005     41.484049999999996
C      38.259700000000002     34.983849999999990     40.327249999999999
C      37.514700000000005     34.754750000000001     33.934350000000002
H      37.639200000000002     33.496650000000002     36.786549999999998
H      37.031200000000005     39.401349999999994     36.130250000000004
H      37.910400000000003     37.444450000000003     34.478749999999998
H      37.566200000000002     40.918549999999996     41.621949999999991
H      37.471000000000004     42.503349999999998     39.701049999999988
H      38.799700000000001     41.513750000000002     37.387149999999998
H      37.378400000000006     38.452050000000000     42.808650000000000
H      38.102800000000002     36.209950000000006     42.397350000000003
H      39.269200000000005     34.654049999999998     40.602749999999993
H      37.544900000000005     34.557249999999996     39.591149999999999
H      36.730799999999995     35.383550000000000     33.653649999999999
H      37.801900000000003     33.790049999999994     33.981049999999996
H      38.390199999999993     34.741650000000007     33.191350000000000
H      38.728700000000003     39.517250000000004     35.666350000000001
H      37.894199999999998     34.032849999999996     41.038950000000000
N      37.923900000000003     35.346149999999994     37.705849999999998
