9

C      37.357099999999996     37.446799999999996     37.966904999999997
C      38.329300000000003     37.138400000000004     38.595495000000007
C      37.439799999999998     38.239999999999995     36.724835000000006
H      38.278099999999995     36.701299999999996     39.808624999999999
H      39.567899999999995     37.104300000000002     38.092255000000002
H      37.445600000000006     39.298700000000004     36.748655000000007
H      38.479299999999995     38.204700000000003     36.240465000000000
H      36.492000000000004     37.818700000000000     36.191375000000001
H      36.432100000000005     36.914999999999999     38.154845000000002
