5

C      37.775300000000001     37.890779999999992     37.951099999999997
H      38.786500000000004     38.029229999999998     38.583400000000005
H      37.213499999999996     38.777569999999997     37.802599999999998
H      37.528300000000002     37.222430000000003     38.770699999999998
H      38.226500000000001     37.267119999999991     37.229300000000002
