45

C      37.164649999999995     36.784849999999992     36.121654999999997
C      37.806449999999998     35.620449999999998     36.843894999999996
C      37.359150000000000     40.475349999999992     39.621364999999997
C      37.463949999999997     39.739950000000000     40.886765000000004
C      36.877650000000003     38.058250000000001     36.693294999999999
C      37.888549999999995     35.860750000000003     38.189064999999999
C      37.770049999999998     39.683249999999994     38.448964999999994
C      38.039850000000001     37.193949999999994     40.131965000000008
C      37.398550000000000     38.397449999999999     38.016965000000006
C      37.651250000000005     37.172349999999994     38.798164999999997
C      36.943550000000002     36.831949999999999     34.708385000000007
C      37.500550000000004     35.637850000000000     33.994084999999998
C      37.732349999999997     34.492849999999997     34.602825000000003
C      38.016949999999994     34.391849999999998     36.019855000000007
C      37.201149999999998     41.919049999999999     39.630364999999998
C      37.290649999999999     42.668950000000002     40.928765000000006
C      37.452750000000009     42.018750000000004     42.053165000000007
C      37.586349999999996     40.604449999999993     42.063065000000009
C      36.395049999999998     39.300849999999997     35.959595000000007
C      35.985250000000008     38.934449999999998     34.491485000000004
C      36.465649999999997     37.777949999999990     33.771025000000002
C      38.165750000000003     38.426349999999992     40.875065000000006
C      38.658150000000006     33.247949999999996     36.649684999999998
C      39.949950000000001     33.203349999999993     37.106405000000002
C      37.871449999999996     33.169249999999998     33.759825000000006
H      38.510750000000002     36.467649999999999     40.797565000000006
H      37.131250000000009     35.360650000000000     32.897435000000002
H      36.701949999999997     42.484050000000003     38.899265000000000
H      37.410950000000000     43.826550000000005     40.772565000000000
H      37.984850000000009     40.291149999999995     43.008164999999998
H      35.718850000000003     39.819049999999997     36.672805000000004
H      36.807850000000002     40.323449999999994     35.371875000000003
H      35.393749999999997     39.700149999999994     33.932575000000007
H      36.718450000000004     37.682149999999993     32.669934999999995
H      38.903250000000000     38.209350000000001     41.592465000000004
H      38.275949999999995     40.251449999999998     37.611564999999999
H      38.056349999999995     32.173449999999995     36.648425000000003
H      37.473549999999989     43.384549999999997     43.282865000000001
H      38.256850000000000     35.043650000000000     38.688465000000008
H      40.606250000000003     34.007849999999998     37.206205000000004
H      40.178550000000001     32.228450000000002     37.672665000000002
H      37.183849999999993     32.253850000000000     33.651875000000004
H      38.097350000000006     33.591649999999994     32.752384999999997
H      39.075550000000007     32.541449999999998     33.955225000000006
O      37.751249999999999     42.463749999999997     43.330065000000005
