7

C      37.713739999999994     37.697304999999986     37.922600000000003
C      38.759449999999994     38.141755000000003     38.580500000000001
H      36.628410000000002     39.259164999999996     37.688299999999998
H      39.371589999999998     37.046402999999998     38.921199999999999
H      38.975149999999999     39.252124999999992     38.705599999999990
H      37.596769999999999     36.740835000000004     37.684500000000000
O      36.927529999999997     38.468395000000001     37.078800000000001
