44

C      37.377749999999992     38.115863999999995     38.721074999999999
C      36.441850000000002     37.317954999999998     39.393225000000001
C      41.016750000000002     34.619455000000002     37.566905000000006
C      38.573850000000000     37.716455000000011     38.075623999999991
C      36.779150000000001     36.027354999999993     39.738255000000009
C      39.866149999999998     35.346455000000006     37.933511000000010
C      38.774750000000004     36.226055000000002     38.340840000000000
C      38.015649999999994     35.495855000000006     39.227435000000000
C      36.812150000000003     39.408815000000004     38.187674000000001
C      35.297850000000004     39.594015000000006     38.130683000000005
C      34.463250000000002     38.671225000000007     38.828265000000002
C      35.012550000000005     37.600554999999993     39.419735000000003
C      37.641550000000002     40.218834999999999     37.330304999999996
C      37.043450000000000     41.339275000000001     36.658904999999990
C      35.640349999999998     41.559215000000002     36.821905000000001
C      34.726450000000000     40.769774999999996     37.587705000000000
C      39.399650000000001     38.529509999999995     37.367305000000002
C      38.888750000000002     39.712255000000006     36.789605000000009
C      35.521250000000002     35.394154999999998     40.287565000000001
C      34.322250000000004     36.379155000000004     40.037765000000007
C      42.546349999999997     34.831555000000009     37.440305000000023
C      33.376249999999999     40.949224999999998     38.119713000000004
C      40.330949999999994     37.566254999999991     36.498904999999993
C      39.677849999999992     39.930565000000001     35.568204999999992
H      38.244650000000000     34.371755000000000     39.373275000000007
H      33.746250000000003     41.577855000000007     39.093215000000001
H      40.933649999999993     33.547154999999997     37.411604999999994
H      33.577150000000003     38.751115000000006     39.394374999999997
H      37.541149999999995     42.217535000000005     36.143005000000016
H      35.409849999999999     34.417755000000000     39.886904999999999
H      35.673950000000005     34.910355000000003     41.250794999999997
H      33.488150000000005     36.079654999999995     39.304195000000007
H      33.747550000000004     36.731054999999998     40.833435000000009
H      43.446349999999995     34.095354999999991     37.697728800000007
H      32.553650000000005     41.610695000000000     37.856453000000002
H      33.930949999999996     42.420335000000001     36.193505000000016
H      41.182249999999996     38.158626000000005     36.108304999999987
H      40.822850000000003     36.931655000000006     37.162304999999989
H      39.849850000000004     37.160954999999994     35.718704999999986
H      39.878450000000001     40.961244999999998     35.416205000000019
H      39.492650000000005     39.360595000000004     34.749205000000003
H      32.941949999999999     40.045685000000006     38.169393999999997
O      42.975050000000003     35.898255000000006     37.117104999999995
O      34.972349999999999     42.452845000000003     35.943705000000008
