11

C      37.461649999999992     39.049449999999993     37.925999999999988
C      38.562649999999991     38.050750000000008     37.719999999999999
C      38.336750000000002     36.629350000000002     38.147500000000008
H      37.580549999999988     40.045349999999999     38.465399999999988
H      36.662349999999996     38.371650000000002     38.290099999999995
H      39.086150000000004     38.279150000000001     36.850899999999996
H      36.982849999999999     39.413350000000008     36.941400000000002
H      39.337650000000004     38.322450000000003     38.439099999999996
H      37.783049999999996     36.560550000000006     39.149100000000004
H      39.075150000000001     35.981449999999995     38.584599999999995
H      38.150150000000004     35.954650000000001     37.185299999999998
