43

C      41.641399999999990     35.963599999999992     41.574554999999997
C      37.356200000000001     38.319599999999994     37.768315000000008
C      38.079100000000004     38.812100000000001     38.979147000000005
C      37.832199999999993     33.726599999999998     36.915814999999995
C      36.979499999999994     36.940100000000001     37.744515000000007
C      39.050100000000000     37.849500000000006     39.642004999999997
C      38.112999999999992     34.573199999999993     37.996615000000013
C      37.956499999999998     36.015999999999991     38.307472000000004
C      38.969299999999997     36.443300000000001     39.179605000000002
C      36.736300000000000     39.108599999999996     36.772615000000002
C      37.033600000000000     40.463899999999988     37.048515000000009
C      38.066499999999998     40.862499999999997     38.002015000000000
C      38.368499999999997     40.138199999999998     39.214185000000001
C      35.409699999999994     38.638300000000001     36.141214999999995
C      34.590799999999994     39.655699999999996     35.412114999999986
C      34.916399999999996     40.948199999999993     35.639315000000003
C      36.080700000000000     41.354499999999994     36.574414999999995
C      35.548099999999998     36.534700000000001     37.418014999999990
C      34.950599999999994     37.392699999999998     36.424115000000008
C      40.457999999999991     37.763099999999994     39.966764999999995
C      41.054600000000001     36.841700000000003     40.763155000000005
C      39.157000000000004     40.526799999999994     40.484025000000003
C      36.473099999999995     42.832399999999986     36.464614999999988
C      38.283600000000000     34.780299999999997     34.606414999999998
H      42.204100000000004     36.203599999999994     42.480384999999998
H      40.079200000000000     39.852400000000003     40.505355000000002
H      41.911600000000000     34.882499999999993     41.455724999999994
H      38.404599999999995     32.791399999999996     36.738115000000001
H      38.865000000000002     34.106099999999998     38.493949000000001
H      39.634300000000003     35.581999999999994     39.617075000000000
H      38.853500000000004     41.371899999999997     37.897315000000006
H      34.383199999999995     41.904499999999999     35.262714999999993
H      35.280399999999993     35.527799999999999     37.682614999999998
H      33.964499999999994     37.402400000000000     36.315114999999999
H      33.795899999999996     39.051000000000002     35.038714999999996
H      41.283499999999997     38.036799999999999     39.353774999999999
H      38.711099999999995     40.549899999999994     41.455305000000003
H      39.233600000000003     41.680099999999996     39.978664999999999
H      36.936299999999996     43.190899999999999     37.347115000000002
H      39.249699999999997     35.070299999999996     34.459714999999996
H      37.896000000000001     34.794799999999995     33.519615000000002
H      35.511499999999991     43.208600000000004     36.876114999999992
N      37.606999999999999     34.199900000000000     35.671414999999989
