6

C      37.303100000000001     37.693799999999989     37.737899999999996
C      38.241799999999998     38.523799999999994     38.315200000000004
H      37.211600000000004     36.485299999999995     38.142400000000002
H      37.098200000000006     37.588999999999999     36.678999999999995
H      38.901799999999994     38.394999999999996     39.321000000000005
H      38.537399999999991     39.514700000000005     37.933299999999996
