52

C      36.875599999999999     38.803999999999995     38.757749999999994
C      37.080700000000007     38.291100000000000     37.367649999999998
C      41.418599999999998     37.047599999999996     39.410350000000001
C      41.217300000000002     36.187899999999999     38.152749999999997
C      38.141700000000007     38.637099999999990     39.727049999999991
C      38.053399999999996     37.350699999999996     37.023049999999998
C      40.354000000000006     37.619699999999995     40.015149999999998
C      39.923100000000005     35.855100000000000     37.710450000000002
C      39.006200000000007     37.619699999999995     39.199849999999998
C      38.960799999999999     36.877899999999997     38.128749999999989
C      35.987400000000008     39.568799999999996     39.355150000000002
C      35.020400000000009     40.169899999999998     38.359749999999998
C      36.253399999999999     39.120399999999997     36.503050000000002
C      42.795199999999994     36.984000000000002     40.013849999999998
C      43.657500000000006     36.061999999999998     39.470349999999996
C      43.318700000000007     35.291199999999996     38.260550000000002
C      42.172600000000003     35.284500000000001     37.561050000000002
C      35.874500000000005     40.280299999999997     40.704050000000002
C      34.609500000000004     40.894599999999997     41.068649999999991
C      33.619200000000006     41.079299999999996     40.189050000000002
C      33.902100000000004     40.886199999999995     38.717649999999999
C      36.988600000000005     39.985500000000002     41.565249999999999
C      38.121599999999994     39.324500000000000     41.005949999999999
C      39.412200000000006     38.930399999999999     41.713949999999990
C      40.503499999999995     38.312099999999994     41.280649999999994
C      42.911100000000005     37.548600000000000     41.341749999999998
C      41.769999999999996     38.177799999999991     41.974749999999993
C      38.099599999999995     36.944899999999997     35.540549999999996
C      37.023899999999998     37.587199999999996     34.766050000000000
C      36.349100000000007     38.853499999999997     35.151249999999997
C      35.251700000000000     39.235300000000002     34.091049999999996
C      32.198300000000003     41.243999999999993     40.810350000000000
H      39.617500000000007     34.982899999999994     36.965249999999997
H      44.772199999999998     35.838000000000001     39.666550000000001
H      43.989900000000006     34.450800000000001     37.820050000000002
H      41.893700000000003     34.439700000000002     36.795850000000002
H      33.964800000000004     40.624800000000000     41.906949999999995
H      37.259500000000003     40.074500000000000     42.634549999999997
H      39.406599999999997     39.672699999999992     42.731349999999992
H      43.764800000000001     37.507399999999997     41.911349999999999
H      41.748399999999997     38.726300000000002     42.814850000000000
H      38.407600000000002     35.794899999999998     35.547649999999990
H      37.027799999999999     36.883899999999990     33.949249999999999
H      33.792600000000007     41.472999999999999     37.017249999999997
H      34.184700000000007     38.889699999999991     34.365449999999996
H      35.375600000000006     40.244799999999998     33.770150000000001
H      31.354199999999999     41.560299999999998     41.559449999999991
H      31.227800000000002     41.368200000000002     40.136049999999997
H      35.262300000000003     38.710699999999996     33.185150000000000
H      31.875800000000005     40.178800000000003     41.232749999999996
N      35.284400000000005     39.942700000000002     37.049450000000000
O      32.990800000000007     41.292600000000000     37.723849999999999
