46

C      37.313799999999993     37.438799999999993     36.993469999999988
C      36.849499999999992     38.733199999999989     37.104969999999994
C      36.130499999999998     35.271100000000004     41.500960000000006
C      37.851799999999997     36.718199999999996     38.258859999999999
C      36.078000000000003     39.109300000000005     38.277360000000002
C      36.767000000000003     36.513900000000000     40.901960000000003
C      36.943300000000001     36.880099999999999     39.357559999999992
C      36.102200000000003     38.013400000000004     39.224459999999993
C      38.147500000000001     36.924999999999997     35.897999999999996
C      38.301600000000001     37.948099999999997     34.856369999999998
C      37.410600000000002     39.079300000000003     34.901009999999999
C      36.599800000000002     39.560199999999988     35.915890000000005
C      39.146599999999999     35.973399999999998     35.946479999999994
C      40.187300000000000     36.057199999999987     35.007970000000000
C      40.320999999999991     36.887900000000002     33.819080000000000
C      39.240199999999994     37.904499999999999     33.736270000000005
C      39.600700000000003     35.332899999999995     37.231030000000004
C      38.814099999999996     35.569600000000001     38.377759999999995
C      39.223199999999991     34.815500000000000     39.628259999999997
C      36.997599999999998     37.666099999999993     41.643760000000000
C      35.401000000000003     41.247699999999995     37.378659999999996
C      35.700600000000001     40.488299999999988     38.523060000000001
C      35.504700000000000     40.624600000000001     36.092079999999996
C      39.276699999999998     35.359099999999998     40.841859999999997
C      41.447299999999998     35.250699999999995     35.286519999999996
C      34.669300000000000     40.832899999999995     35.060469999999995
H      36.346000000000004     33.946399999999990     42.776660000000007
H      35.298299999999998     38.189399999999999     39.906259999999989
H      37.680599999999998     39.800500000000000     33.998159999999999
H      41.298900000000003     37.166200000000003     33.684979999999996
H      39.590000000000003     38.665800000000004     33.223339999999993
H      40.240299999999991     34.395099999999999     37.204139999999995
H      39.715299999999999     33.904100000000000     39.487260000000006
H      37.422100000000000     38.616299999999995     40.986860000000007
H      36.486100000000000     37.730100000000000     42.459760000000003
H      34.820999999999998     42.095900000000000     37.325540000000004
H      35.385700000000000     41.036799999999999     39.686859999999996
H      39.103400000000001     36.328000000000003     41.275059999999996
H      39.658300000000004     34.889800000000001     41.678659999999994
H      40.925600000000003     34.205799999999996     35.699489999999997
H      41.865700000000004     35.027299999999997     34.310329999999993
H      42.190599999999996     35.298399999999994     36.076899999999995
H      34.835200000000000     40.530599999999986     34.073419999999999
H      33.809400000000004     41.408500000000004     34.917630000000003
H      35.536199999999994     34.380700000000004     41.210859999999997
N      36.557099999999998     34.786799999999999     42.550559999999990
