5

C      37.991849999999999     37.945249999999994     38.029149999999987
H      37.247950000000003     37.227750000000000     38.625149999999991
H      37.488450000000000     38.749150000000000     37.331150000000001
H      38.485849999999999     38.772250000000000     38.668849999999999
H      38.752049999999997     37.321950000000001     37.492749999999994
