67

C      41.295759999999987     37.284299999999995     34.297799999999995
C      39.166960000000003     41.032600000000002     37.803800000000003
C      35.816209999999998     36.274599999999992     41.657899999999998
C      39.495760000000004     39.653499999999994     37.665300000000002
C      36.661839999999998     35.636800000000001     40.667299999999997
C      37.900970000000001     41.206299999999999     38.594100000000005
C      35.432019999999994     37.609099999999991     41.710400000000007
C      38.691990000000004     38.465099999999993     37.948000000000008
C      37.473600000000005     36.510899999999999     39.717500000000008
C      36.305480000000003     39.908699999999996     40.339900000000007
C      37.237009999999984     40.154899999999998     39.244600000000005
C      36.355429999999998     38.445000000000000     40.848700000000008
C      37.680759999999992     38.818800000000003     38.933000000000007
C      37.073700000000002     37.868499999999990     39.873200000000004
C      39.354259999999996     37.065700000000000     37.937500000000000
C      38.363609999999994     36.176099999999998     38.744500000000002
C      40.084459999999993     42.155600000000000     37.548899999999996
C      41.454359999999994     41.865900000000003     37.218199999999996
C      41.701059999999998     40.497500000000002     37.020599999999995
C      40.816260000000000     39.359800000000000     37.188099999999999
C      41.148060000000001     38.032299999999999     36.795400000000008
C      40.589860000000002     36.794300000000000     37.410399999999996
C      37.397160000000000     42.544299999999993     38.683399999999999
C      38.408209999999997     43.588299999999997     38.468000000000004
C      39.527659999999997     43.478399999999993     37.710799999999999
C      36.676879999999997     34.246600000000001     40.843300000000006
C      38.717479999999995     34.761800000000001     38.894600000000004
C      39.140760000000000     34.285899999999998     37.490800000000007
C      35.949739999999991     42.643500000000003     38.959900000000005
C      34.909149999999997     41.903500000000001     38.001700000000000
C      35.296289999999999     33.557400000000001     41.258300000000006
C      35.186619999999998     32.139299999999999     40.799299999999995
C      40.364660000000001     34.430599999999998     39.313499999999998
C      33.994249999999994     32.000500000000002     39.706700000000005
C      42.001559999999998     37.568199999999997     35.614699999999999
C      37.574629999999999     33.844400000000000     39.687799999999996
H      40.738960000000006     36.454799999999992     34.490000000000002
H      40.642359999999996     38.094500000000004     33.888400000000004
H      41.933959999999985     37.352100000000000     33.330800000000004
H      35.154650000000004     35.786199999999994     42.582099999999997
H      34.810489999999994     37.729199999999992     42.669199999999996
H      35.548940000000002     40.604700000000001     40.657799999999995
H      42.261960000000002     42.594399999999993     37.255800000000001
H      42.963260000000005     40.407499999999999     37.172899999999998
H      41.147760000000005     35.919200000000004     37.527000000000001
H      37.849980000000002     44.710599999999999     38.455399999999997
H      34.997199999999992     40.749600000000001     38.186600000000006
H      39.843559999999997     44.418599999999991     37.218100000000007
H      41.135159999999999     34.701799999999999     38.645699999999998
H      39.038759999999996     35.257399999999997     36.801400000000008
H      38.630120000000005     33.339599999999997     37.012700000000002
H      35.548320000000004     41.830599999999997     37.219099999999997
H      33.809460000000001     42.282699999999991     38.302000000000007
H      34.780670000000001     31.289400000000001     41.817000000000007
H      35.968069999999997     31.424300000000002     40.119300000000003
H      40.636460000000000     33.664600000000000     40.036700000000003
H      40.731660000000005     35.228200000000001     39.877299999999998
H      34.364219999999996     31.363900000000001     38.748800000000003
H      33.339589999999994     31.515599999999999     40.498399999999997
H      33.036739999999995     32.565899999999999     39.809200000000004
H      42.769559999999998     38.324500000000000     35.234500000000004
H      42.355259999999987     36.554099999999991     35.965300000000006
H      38.196789999999993     33.120899999999999     40.056899999999999
H      36.841250000000002     33.688600000000001     38.761300000000006
H      40.094259999999991     33.841999999999999     37.400700000000008
O      35.453689999999995     43.349299999999999     39.823399999999999
O      34.337669999999996     34.129600000000003     41.727300000000007
