39

C      35.952919999999992     37.590449999999990     38.275699999999986
C      35.537919999999986     38.486149999999995     39.257700000000000
C      40.293670000000006     39.665350000000004     38.204899999999995
C      39.872780000000006     40.781549999999996     38.761499999999984
C      37.264719999999997     37.543449999999993     37.764899999999997
C      36.123719999999992     39.753950000000003     39.396000000000001
C      39.408630000000002     38.488849999999999     37.927999999999997
C      38.416519999999991     40.988550000000004     38.927199999999999
C      38.065219999999997     38.665149999999997     38.279399999999995
C      37.448819999999998     39.981349999999992     38.796499999999995
C      35.111119999999985     36.321349999999995     38.116500000000002
C      33.814519999999987     36.174849999999992     38.635999999999996
C      33.460919999999987     37.176549999999992     39.702999999999989
C      34.208319999999986     38.425049999999985     39.730999999999995
C      41.715660000000000     39.544649999999990     37.904100000000000
C      42.751000000000005     40.219849999999994     38.566599999999994
C      42.254379999999998     41.513149999999996     38.952299999999994
C      40.844949999999997     41.756649999999993     39.083900000000000
C      35.282719999999998     35.241950000000003     37.079499999999996
C      34.120119999999986     34.557549999999992     36.435099999999991
C      33.331919999999997     34.064250000000001     37.507099999999994
C      32.879719999999992     35.125050000000002     38.439499999999995
C      37.826519999999988     42.164850000000001     39.616500000000002
H      37.781119999999987     36.843850000000003     37.247899999999987
H      35.692419999999998     40.403849999999991     40.168799999999990
H      39.937230000000000     37.513549999999995     37.541399999999996
H      38.664528000000004     42.426649999999995     40.414199999999994
H      33.966319999999996     39.240650000000002     40.564400000000006
H      41.970110000000005     38.758849999999995     37.114400000000003
H      43.857080000000011     40.044749999999993     38.100299999999990
H      43.053510000000003     42.229050000000001     39.031199999999998
H      40.439890000000005     42.510749999999987     39.734999999999985
H      36.273019999999988     35.596949999999993     36.568100000000001
H      34.249519999999990     34.288649999999990     35.435599999999994
H      32.865919999999988     33.191149999999993     37.074599999999990
H      32.142919999999989     35.047049999999999     39.365600000000001
H      36.886819999999986     42.104149999999990     40.118399999999994
H      37.402719999999988     42.808850000000007     38.851900000000001
O      32.536519999999996     36.883349999999993     40.421399999999991
