5

C      38.305115000000001     37.747949999999996     38.010449999999992
H      38.470694999999992     37.091450000000002     37.115449999999996
H      37.250475000000009     37.485650000000007     38.155150000000006
H      38.749524999999991     37.254850000000005     38.884550000000004
H      38.227095000000006     38.908549999999998     37.992149999999995
