155

C      49.791249999999998     40.026299999999992     39.298449999999995
C      25.144350000000003     39.176299999999998     36.480049999999999
C      26.478250000000003     39.155099999999997     37.166450000000005
C      26.863050000000001     36.248500000000000     33.144350000000003
C      27.725950000000005     35.820100000000004     34.198450000000001
C      24.780750000000005     38.575299999999999     35.264749999999999
C      27.556550000000001     38.444000000000003     36.556850000000004
C      25.996750000000006     37.295299999999997     33.444249999999997
C      25.924350000000004     37.938699999999997     34.677250000000001
C      27.148850000000003     37.637599999999999     35.419450000000005
C      24.315950000000001     40.100700000000003     37.208250000000000
C      25.839350000000003     40.863599999999991     38.664149999999999
C      26.779150000000001     39.843100000000000     38.418849999999999
C      23.750550000000004     39.383099999999992     34.509250000000002
C      25.626850000000005     40.719899999999996     33.939550000000004
C      24.294150000000002     40.613000000000000     33.659649999999999
C      28.972150000000006     38.964399999999998     36.686450000000001
C      28.984350000000006     39.801000000000002     39.832349999999998
C      27.678450000000005     39.250000000000000     39.466050000000003
C      26.195250000000001     42.029000000000003     39.530250000000002
C      33.174250000000001     40.506399999999999     34.103750000000005
C      32.290350000000004     39.316200000000002     33.625850000000000
C      30.969750000000005     39.192200000000000     34.147750000000002
C      30.612950000000005     40.122799999999991     35.036650000000002
C      31.504350000000002     41.098999999999997     35.410750000000000
C      32.893050000000002     41.360599999999998     35.128750000000004
C      33.114549999999994     38.593699999999998     32.674450000000000
C      34.276150000000001     39.313899999999997     32.414249999999996
C      34.377650000000003     40.380000000000003     33.339150000000004
C      31.179250000000003     41.963799999999992     36.695050000000002
C      35.448750000000004     41.122900000000001     35.690350000000002
C      41.599949999999993     36.585200000000000     40.402549999999998
C      42.481750000000005     37.663100000000000     39.906750000000002
C      38.478550000000006     37.906900000000000     36.782450000000004
C      39.675950000000000     38.329599999999999     35.864249999999998
C      40.319050000000004     36.243499999999997     39.773850000000003
C      42.216550000000005     38.042000000000002     38.566949999999991
C      38.798950000000005     36.798600000000000     37.792850000000001
C      40.965550000000000     38.006399999999999     36.481850000000001
C      40.010450000000006     36.755800000000001     38.534350000000003
C      41.169749999999993     37.538400000000003     37.842649999999999
C      41.965050000000005     36.091200000000001     41.718149999999994
C      43.278350000000003     36.256700000000002     42.347650000000002
C      43.917250000000003     37.433000000000000     41.809049999999999
C      43.549450000000000     38.194400000000002     40.783050000000003
C      37.408850000000001     38.710700000000003     36.607550000000003
C      37.564850000000000     39.977800000000002     35.845750000000002
C      38.581650000000003     40.216000000000001     34.929549999999992
C      39.513549999999995     39.143599999999999     34.694350000000000
C      41.268450000000001     34.906700000000001     42.134950000000003
C      41.906550000000003     34.197899999999997     43.178049999999992
C      43.046850000000006     34.587899999999998     43.895350000000001
C      43.771450000000002     35.896400000000000     43.689250000000001
C      39.523750000000000     35.172699999999999     40.392350000000000
C      39.907650000000004     34.660299999999992     41.575450000000004
C      38.861850000000004     41.594699999999989     34.243749999999999
C      44.044150000000002     39.433799999999998     40.315749999999994
C      38.332250000000002     34.490800000000000     39.690950000000001
C      36.697250000000004     41.191999999999993     36.131850000000000
C      45.558250000000001     36.246800000000000     36.053550000000001
C      44.568250000000006     37.153100000000002     36.098450000000000
C      48.633250000000004     39.687199999999990     36.886949999999999
C      46.928449999999998     36.610599999999998     35.583849999999998
C      45.018950000000004     38.627299999999998     36.412250000000000
C      48.693150000000003     38.184199999999997     36.247849999999993
C      47.315350000000002     37.978099999999998     36.058150000000005
C      46.410650000000004     39.109299999999998     36.295250000000003
C      45.441550000000007     34.780000000000001     36.174750000000003
C      44.091050000000003     34.241799999999998     36.421650000000000
C      43.048550000000006     35.286900000000003     36.631850000000000
C      43.209350000000001     36.751600000000003     36.378649999999993
C      47.825150000000001     35.708700000000000     34.805449999999993
C      47.425950000000000     34.167800000000000     34.862150000000000
C      46.783550000000005     34.204999999999998     36.393650000000001
C      44.140850000000000     39.621800000000000     36.756550000000004
C      44.566750000000006     41.142399999999995     36.853850000000001
C      42.278949999999995     37.769799999999996     35.824350000000003
C      49.169350000000001     39.957599999999999     38.200150000000001
C      52.022249999999993     38.098399999999998     37.465450000000004
C      50.916250000000005     38.320500000000003     36.699050000000000
C      49.815750000000001     37.401799999999994     36.415149999999997
C      51.171250000000001     39.294800000000002     35.507950000000001
C      42.598849999999999     38.567500000000003     34.574950000000001
H      49.380250000000004     39.714500000000001     40.327050000000000
H      51.033550000000005     39.860300000000002     39.180750000000003
H      28.621650000000002     34.409799999999997     34.845550000000003
H      26.905850000000001     35.674700000000001     32.269350000000003
H      25.382150000000003     37.760800000000003     32.665849999999992
H      22.955950000000001     39.037399999999998     35.137950000000004
H      23.353349999999999     38.947600000000001     33.558350000000004
H      26.124050000000004     41.308500000000002     33.350950000000005
H      26.046850000000006     40.165199999999999     34.614150000000002
H      23.702750000000002     41.197499999999998     32.935749999999999
H      23.280250000000002     39.972999999999999     36.868050000000004
H      29.003150000000005     39.527600000000000     37.731050000000003
H      29.832150000000006     38.316299999999998     37.000850000000000
H      29.495450000000005     40.764400000000002     39.784749999999995
H      29.394650000000006     39.311899999999994     40.721049999999991
H      25.604750000000003     41.722100000000005     40.374449999999996
H      27.992650000000005     38.218200000000003     39.397149999999996
H      25.797650000000004     42.960400000000000     39.073149999999998
H      27.179550000000006     42.118399999999994     39.863749999999996
H      35.099750000000000     41.071100000000001     33.307749999999999
H      34.925349999999995     39.165999999999997     31.526949999999992
H      30.747450000000001     41.134699999999995     37.678649999999998
H      30.005150000000000     42.217000000000006     36.184049999999999
H      36.391049999999993     38.481799999999993     36.717949999999995
H      32.095550000000003     42.548499999999997     37.250150000000005
H      42.704950000000004     38.808199999999999     38.066150000000000
H      37.702850000000005     36.588200000000001     38.085750000000004
H      42.029949999999999     34.831400000000002     36.624350000000000
H      44.787550000000003     37.634099999999997     42.518650000000001
H      40.363750000000003     39.735700000000001     34.509650000000001
H      41.421449999999993     33.296799999999998     43.486350000000002
H      43.302050000000001     34.249999999999993     44.900550000000003
H      44.300150000000002     36.257600000000004     44.536549999999998
H      39.343550000000000     33.823900000000002     41.933049999999994
H      44.646950000000004     39.802499999999995     39.159450000000000
H      38.869950000000003     33.811399999999999     38.977650000000004
H      37.588650000000001     34.651499999999999     40.431749999999994
H      38.048850000000002     35.055700000000002     38.743050000000004
H      37.300450000000005     42.156500000000001     36.318750000000001
H      34.941149999999993     40.081399999999995     35.460549999999998
H      43.948849999999993     33.435699999999997     37.094950000000004
H      49.055750000000003     35.764099999999999     35.086649999999999
H      48.419550000000001     33.738199999999999     35.051150000000000
H      46.749150000000000     33.863500000000002     34.153250000000000
H      46.627750000000006     33.039600000000000     36.804450000000003
H      47.074050000000000     34.741700000000002     37.238549999999996
H      43.123949999999994     39.279600000000002     36.571950000000001
H      45.372750000000003     41.660399999999996     36.412050000000001
H      43.704850000000000     41.893899999999988     37.407650000000004
H      49.054850000000002     40.631500000000003     36.257350000000002
H      51.501650000000005     37.346600000000002     38.192749999999997
H      53.044049999999999     38.745100000000001     37.441849999999995
H      49.768149999999999     36.432699999999997     36.767349999999993
H      46.614550000000001     40.769199999999998     37.551050000000004
H      51.267150000000001     40.360199999999992     35.799750000000003
H      52.340650000000004     38.978700000000003     35.465850000000003
H      50.516249999999999     39.519599999999997     34.659750000000003
H      42.150450000000006     39.642200000000003     34.524550000000005
H      43.673050000000003     38.800599999999996     34.457149999999999
H      42.734350000000006     38.107500000000002     33.489950000000000
H      33.261450000000004     37.491999999999997     31.099449999999997
H      28.652750000000005     39.370399999999997     33.835950000000004
N      27.818850000000005     36.503599999999999     35.270850000000003
N      24.757850000000005     41.090999999999994     38.018050000000002
N      46.983950000000000     40.309799999999996     36.669950000000000
O      28.421250000000001     34.648899999999998     33.948550000000004
O      32.818150000000003     37.513700000000000     31.891849999999991
O      29.322350000000000     40.159700000000001     35.660550000000001
O      39.118350000000007     42.589799999999997     33.720649999999999
O      43.892650000000003     40.358499999999992     41.076850000000000
S      34.203950000000006     42.399899999999995     35.881650000000000
S      29.558150000000005     38.908299999999997     32.933450000000001
