59

C      37.462089999999989     38.517399999999995     37.663414999999986
C      37.996189999999999     37.064700000000002     37.127555000000001
C      33.813119999999998     35.160000000000004     37.151854999999998
C      36.440190000000001     38.569600000000001     38.541214999999994
C      37.057290000000009     35.961299999999994     36.961465000000004
C      34.918189999999996     37.059100000000008     39.708194999999989
C      35.019590000000008     34.958400000000005     37.925954999999988
C      36.032790000000006     37.179700000000004     38.822765000000004
C      36.123689999999996     36.000300000000003     38.008994999999999
C      38.279290000000003     39.670400000000008     37.548265000000001
C      39.491189999999989     39.617200000000004     36.807145000000006
C      39.950389999999999     38.332100000000004     36.448994999999996
C      39.286089999999987     36.988900000000008     36.747195000000005
C      37.654290000000003     40.975800000000000     37.653985000000006
C      38.237090000000009     42.204700000000003     37.057685000000006
C      39.475989999999996     42.132899999999999     36.524884999999998
C      40.089590000000001     40.887999999999998     36.233675000000005
C      36.372790000000009     40.964100000000002     38.362345000000005
C      35.855090000000004     39.820500000000003     39.162494999999993
C      41.353289999999987     38.335700000000003     36.169264999999996
C      41.982689999999991     36.953600000000002     36.650784999999999
C      41.207290000000000     35.896900000000002     37.387784999999994
C      39.858989999999991     35.842399999999998     37.400755000000004
C      37.085489999999993     35.411200000000001     35.464844999999997
C      39.312989999999999     34.674600000000005     38.201475000000002
C      34.966690000000000     39.619500000000002     40.175594999999987
C      34.390190000000004     38.307700000000004     40.145595000000000
C      41.488290000000006     40.797500000000007     35.855644999999996
C      41.941689999999994     39.494099999999996     35.575564999999997
C      35.143789999999996     33.963000000000001     39.011144999999985
C      33.957909999999998     33.933599999999998     39.925294999999991
C      35.193089999999998     41.727600000000002     37.829324999999997
H      39.905789999999996     33.732900000000001     37.859944999999996
H      36.160190000000000     35.153700000000008     35.302355000000006
H      33.608729999999994     34.293900000000001     36.749044999999995
H      33.415120000000002     36.144099999999995     36.937704999999994
H      39.926590000000004     43.121799999999993     36.256405000000001
H      42.896589999999989     37.183300000000003     37.202124999999995
H      37.884889999999999     34.631900000000009     35.038605000000004
H      37.821190000000001     36.160900000000005     35.155505000000005
H      38.183490000000006     34.978399999999993     38.056794999999994
H      39.648689999999988     34.636100000000006     39.240295000000003
H      34.645790000000005     35.956200000000003     39.663494999999998
H      34.610389999999995     40.527999999999999     40.961394999999996
H      33.522840000000002     38.040300000000002     40.892494999999997
H      42.027889999999999     41.667899999999996     35.584635000000006
H      43.006889999999999     39.587600000000002     35.138464999999997
H      42.298590000000004     36.340400000000002     35.733805000000004
H      32.993110000000001     33.550800000000002     39.578095000000005
H      33.736719999999991     34.901500000000006     40.460295000000002
H      34.254640000000009     32.859400000000001     40.416894999999997
H      41.292290000000008     34.155600000000000     38.302814999999995
H      37.595590000000001     43.140599999999999     36.985735000000005
H      34.280290000000008     41.283999999999999     38.324984999999998
H      35.275689999999997     42.771999999999998     38.118284999999986
H      35.493989999999997     40.549999999999997     36.181894999999997
O      36.235389999999995     33.795400000000008     39.487295000000003
O      41.968290000000010     34.847300000000004     37.834114999999997
O      35.247290000000007     41.509300000000003     36.465104999999994
