14

C      37.855864999999994     39.157950000000000     38.925549999999994
C      36.830485000000003     38.488950000000003     38.366050000000001
C      37.283594999999998     37.943049999999999     37.041650000000004
C      38.680324999999996     37.785350000000008     36.668250000000000
C      39.169865000000001     38.980450000000005     37.180850000000007
C      36.492525000000001     36.904150000000001     36.498850000000004
H      37.761215000000000     39.713349999999991     39.886649999999996
H      39.391705000000002     37.021450000000002     36.216549999999998
H      35.133715000000002     38.785250000000005     39.513550000000002
H      40.866284999999998     40.008049999999997     36.825450000000004
N      38.961185000000000     39.582250000000002     38.260450000000006
O      35.895555000000002     35.991950000000003     36.113350000000004
O      35.516685000000003     38.295450000000002     38.697450000000003
O      40.330244999999998     39.292349999999999     36.517949999999999
