5

C      37.858749999999986     38.025199999999998     37.964549999999996
H      37.590850000000003     38.856300000000005     38.454650000000001
H      38.845550000000003     37.831400000000002     37.578450000000004
H      37.206249999999997     37.143699999999995     38.773949999999999
H      37.154449999999997     37.593400000000003     37.226050000000001
