6

C      38.230999999999995     38.017849999999989     37.392261999999988
C      37.837800000000001     37.708749999999988     38.673961999999996
H      39.303500000000000     38.450350000000000     37.214161999999995
H      36.696500000000000     37.549650000000000     38.994569200000001
H      37.431100000000001     38.132949999999987     36.501861999999996
H      38.553100000000001     37.604249999999993     39.498138000000004
