54

C      39.301274999999997     39.237299999999998     37.611850000000004
C      40.273775000000001     38.179100000000005     37.384050000000002
C      35.641175000000004     35.956500000000005     35.816749999999999
C      36.692074999999996     35.038400000000003     35.717649999999992
C      37.978875000000002     38.800400000000003     37.180050000000008
C      39.873074999999993     36.876500000000000     36.790850000000006
C      36.230275000000006     37.282000000000004     36.337350000000001
C      38.090775000000008     35.237499999999997     35.980250000000012
C      37.632975000000002     37.564700000000002     36.512750000000011
C      38.677175000000005     36.526200000000003     36.206750000000000
C      39.569974999999992     40.419899999999998     38.289450000000002
C      41.012375000000006     40.623499999999993     38.804349999999999
C      42.007375000000003     39.696799999999996     38.376049999999992
C      41.631674999999994     38.564099999999996     37.714950000000002
C      34.230675000000005     35.738500000000002     35.536450000000002
C      33.902675000000002     34.307200000000002     35.332250000000002
C      34.951975000000004     33.361600000000003     35.121950000000012
C      36.260475000000000     33.784400000000005     35.537849999999992
C      38.451875000000001     41.073799999999999     38.918550000000010
C      39.977375000000002     42.141799999999996     40.346050000000005
C      41.168675000000007     41.671199999999999     39.790050000000008
C      37.182275000000004     40.790100000000002     38.517749999999992
C      36.969475000000003     39.644999999999996     37.769250000000000
C      35.536974999999998     39.224600000000002     37.448450000000008
C      35.075875000000003     38.093999999999994     36.863450000000000
C      33.093575000000001     36.806400000000004     35.853449999999995
C      33.542874999999995     37.702800000000003     36.996650000000002
C      40.607674999999993     35.634800000000006     36.821650000000005
C      40.962775000000008     35.283400000000000     37.965750000000000
C      42.696375000000003     37.943300000000001     36.791049999999998
C      40.608974999999994     34.604400000000005     35.931850000000011
H      43.016275000000007     40.104900000000001     38.523850000000010
H      33.033964999999995     33.923200000000001     35.000750000000011
H      34.946475000000007     32.412200000000006     34.417150000000007
H      36.926474999999996     32.983600000000003     35.515649999999994
H      41.977474999999998     42.339600000000004     40.252750000000006
H      36.267875000000004     41.290400000000005     38.885949999999994
H      34.967574999999997     39.805599999999998     38.194250000000011
H      32.476095000000001     37.402100000000004     35.157850000000010
H      32.329825000000000     36.104000000000006     36.322450000000003
H      32.987985000000002     38.665099999999995     37.197649999999996
H      33.613075000000002     37.086699999999993     38.021550000000005
H      43.648075000000006     37.546800000000005     37.479750000000010
H      41.063675000000003     36.031800000000004     38.666850000000011
H      42.052775000000004     34.766200000000005     38.218350000000001
H      42.505075000000005     37.013000000000005     36.149250000000009
H      43.670175000000000     38.403000000000006     36.483650000000011
H      40.096174999999995     34.622000000000000     35.017949999999999
H      39.687075000000000     43.587799999999994     41.582849999999993
H      41.661975000000005     33.408200000000001     34.867450000000005
H      38.582475000000002     34.313200000000002     36.282050000000012
N      38.769375000000004     41.830099999999995     39.988450000000000
O      41.631174999999992     33.670500000000004     35.910050000000012
O      40.293974999999996     42.997100000000003     41.341149999999999
