5

C      38.059749999999994     38.153349999999996     38.311149999999998
H      38.377249999999997     38.069650000000003     37.197050000000004
H      38.910049999999998     38.871549999999999     38.263449999999992
H      37.089950000000002     38.670850000000002     38.670649999999995
H      38.245350000000002     37.128450000000001     38.802949999999996
