34

C      36.755650000000003     36.703199999999995     38.168149999999990
C      40.817349999999990     39.854900000000001     38.985950000000003
C      37.982050000000001     37.189200000000000     38.837949999999999
C      40.259649999999993     38.491199999999992     38.952849999999998
C      36.057950000000005     37.756299999999996     37.470150000000004
C      39.946349999999995     40.926799999999986     38.419849999999997
C      36.630050000000011     40.309299999999993     36.719449999999988
C      37.689650000000000     41.255299999999991     36.995949999999993
C      38.850050000000010     38.400699999999986     38.742149999999995
C      36.837750000000000     39.003000000000000     37.231650000000002
C      38.802449999999993     40.603200000000001     37.828249999999997
C      38.201750000000004     39.283499999999989     37.881749999999997
C      37.193950000000001     34.539800000000000     38.808649999999993
C      38.436450000000008     34.680199999999999     39.492849999999997
C      38.595350000000010     36.035299999999992     39.469750000000005
C      40.130350000000007     36.150800000000004     39.959049999999998
C      40.813549999999992     37.232299999999995     39.608850000000004
C      34.923950000000005     37.328699999999998     36.547550000000001
C      40.565850000000012     42.346099999999993     38.307549999999999
H      41.208050000000000     42.375399999999985     37.298450000000003
H      41.821550000000002     40.037199999999984     39.111450000000005
H      35.583650000000006     40.662999999999997     36.640050000000002
H      37.590249999999997     42.345600000000005     36.912750000000003
H      36.642550000000000     33.774299999999997     39.136249999999997
H      40.628550000000004     35.055999999999997     40.008049999999997
H      41.981750000000005     37.182599999999994     39.619349999999997
H      38.724649999999997     32.793400000000005     39.752349999999993
H      34.018249999999995     36.590999999999994     37.161950000000004
H      34.944749999999999     36.312299999999993     36.012150000000005
H      34.896249999999995     38.128199999999993     35.960049999999995
H      39.798050000000003     43.206599999999995     38.073250000000002
H      41.042850000000001     42.452200000000005     39.283949999999997
N      36.494050000000001     35.441400000000002     37.912850000000006
O      39.213250000000002     33.584800000000001     40.039950000000005
