6

C      38.548299999999998     37.854959999999998     38.146449999999994
C      37.280300000000004     38.216980000000007     37.996350000000007
H      39.262800000000006     38.518790000000010     37.844149999999999
H      38.976100000000002     36.964060000000003     38.577049999999993
H      36.737199999999994     39.035939999999997     37.379249999999999
H      36.820900000000002     37.275440000000003     38.620750000000001
