5

C      37.873699999999999     38.138314999999992     38.011699999999998
H      37.372399999999999     37.143214999999998     38.336400000000012
H      38.062300000000008     38.856785000000002     38.892999999999994
H      38.627600000000001     37.315965000000006     37.963600000000014
H      37.954000000000008     38.621305000000007     37.107000000000006
