5

C      38.178950000000000     37.760399999999990     38.183699999999995
H      38.325850000000003     38.796300000000002     38.525500000000001
H      38.347350000000006     37.875399999999999     37.062300000000000
H      38.885350000000003     37.231300000000005     38.937700000000000
H      37.114649999999997     37.203699999999998     38.287199999999999
