54

C      39.608829999999998     33.802049999999994     37.797299999999993
C      38.410570000000000     33.399349999999998     38.334099999999992
C      37.341720000000002     41.000049999999995     38.570299999999996
C      35.943520000000007     40.738849999999999     38.580900000000000
C      39.561320000000002     35.248749999999994     37.254300000000001
C      37.189190000000004     34.484749999999991     38.423899999999989
C      38.374109999999995     40.080549999999995     38.294899999999998
C      35.585600000000007     39.336350000000003     38.427399999999992
C      38.816020000000002     37.697149999999993     37.479799999999997
C      36.304590000000005     36.922950000000000     38.367599999999996
C      38.609880000000004     36.399850000000001     37.622299999999996
C      37.354990000000008     35.879049999999992     38.205199999999998
C      37.820970000000003     38.837449999999997     37.917299999999997
C      36.509919999999994     38.322449999999996     38.037399999999998
C      40.596089999999997     32.853649999999995     37.255899999999997
C      40.701080000000005     31.556249999999999     37.982799999999997
C      39.512010000000004     31.226050000000001     38.405499999999996
C      38.402380000000001     32.028749999999995     38.558000000000000
C      37.507090000000005     42.283449999999995     39.240100000000005
C      36.646369999999997     43.339149999999997     39.171699999999994
C      35.439650000000007     43.099849999999989     38.469099999999997
C      34.945100000000004     41.828849999999996     38.702500000000001
C      40.501550000000002     35.343049999999998     36.214599999999997
C      41.527349999999998     34.383150000000001     35.867699999999999
C      41.269050000000000     32.969650000000001     36.018899999999995
C      35.950719999999997     34.031149999999997     38.914999999999999
C      36.915220000000005     31.727550000000001     38.704200000000000
C      34.411059999999999     39.093750000000000     39.216399999999993
C      37.074580000000005     44.615249999999996     40.120200000000004
C      35.929530000000007     32.637750000000004     39.273599999999995
C      34.657010000000007     43.921649999999993     37.958999999999989
C      40.293590000000002     37.875250000000001     37.922499999999999
H      40.748930000000009     36.964050000000000     37.224100000000000
H      39.441400000000009     40.511350000000000     38.329599999999999
H      39.165370000000003     30.297450000000005     38.884599999999999
H      33.913430000000005     41.741350000000004     38.796999999999997
H      40.620050000000006     38.601250000000000     37.161699999999996
H      42.480350000000008     34.404949999999992     35.153500000000001
H      42.007650000000005     32.195850000000000     35.559899999999999
H      34.930930000000004     34.481950000000005     38.730699999999999
H      36.426030000000004     30.703549999999993     38.356499999999990
H      37.854990000000008     44.652349999999998     40.846499999999999
H      42.586750000000002     30.736150000000002     37.798099999999998
H      39.515650000000001     41.801749999999991     39.749400000000001
H      34.924330000000005     32.199549999999995     39.661099999999998
H      34.820920000000008     44.170749999999991     36.936699999999995
H      33.677409999999995     44.253249999999994     38.626799999999989
H      40.321500000000000     36.199050000000000     35.698399999999999
H      40.447970000000005     37.926150000000000     38.973399999999998
O      33.413249999999998     38.872750000000003     39.765399999999985
O      36.649580000000000     45.702549999999995     39.913000000000004
O      35.376810000000006     36.499949999999998     39.029900000000005
O      41.797850000000004     30.987349999999999     38.575899999999997
O      38.689899999999994     42.386749999999992     39.848499999999994
