9

C      37.312949999999994     37.817499999999995     38.934809999999999
C      37.675349999999995     38.500699999999995     37.643160000000002
C      38.864149999999995     38.439600000000006     37.471820000000001
H      36.334250000000004     38.571200000000005     39.294070000000005
H      37.347950000000004     36.739399999999996     39.085520000000002
H      38.106450000000002     37.642400000000002     39.700069999999997
H      37.074350000000003     39.260600000000004     37.496030000000005
H      39.665749999999996     38.374500000000005     38.431230000000006
H      38.998750000000001     38.299200000000006     36.299930000000003
