6

C      37.292899999999989     38.291849999999997     38.007449999999992
C      38.376599999999996     37.533149999999992     37.581750000000007
H      37.078199999999995     39.504549999999995     37.798849999999995
H      36.467600000000004     38.103250000000003     38.629049999999999
H      39.532399999999996     38.067849999999993     37.370950000000001
H      38.475600000000000     36.495450000000005     37.656749999999995
