41

C      37.581899999999997     36.383699999999990     38.615899999999996
C      38.614000000000004     36.521400000000000     39.596699999999998
C      40.043200000000006     39.705300000000008     35.856999999999999
C      40.937600000000003     39.934600000000003     36.916600000000003
C      37.587799999999994     37.109400000000008     37.323499999999996
C      39.930199999999999     37.026899999999998     39.100899999999996
C      39.117800000000003     38.554200000000009     35.755699999999990
C      41.072300000000006     38.699300000000008     37.610500000000002
C      38.838699999999996     37.771100000000004     36.890900000000002
C      39.980899999999998     37.696399999999997     37.796500000000009
C      36.300500000000000     36.006500000000003     39.086799999999997
C      36.321800000000003     34.847500000000011     40.074500000000000
C      37.411000000000001     34.837100000000007     41.001400000000004
C      38.571400000000004     35.739300000000000     40.823000000000008
C      40.137900000000002     40.749899999999997     34.931500000000000
C      41.298500000000004     41.645700000000005     34.634100000000004
C      42.137399999999992     41.440899999999999     35.832299999999989
C      35.006000000000000     37.538699999999992     37.710300000000004
C      35.083300000000001     36.726699999999994     38.833699999999993
C      41.103999999999992     37.090400000000002     39.962299999999999
C      41.045600000000000     36.583900000000000     41.277600000000007
C      39.795100000000005     35.809600000000003     41.531599999999997
C      33.584300000000006     37.995799999999988     37.317099999999996
C      36.219900000000003     37.620500000000007     36.925299999999993
C      42.362799999999993     38.241000000000000     38.178500000000000
H      38.158500000000004     38.813900000000004     35.173699999999997
H      35.504600000000003     34.350200000000001     40.438199999999995
H      37.135200000000005     34.229500000000002     42.000399999999999
H      39.252900000000004     40.788599999999988     34.284799999999990
H      41.716400000000000     41.770499999999998     33.568300000000008
H      43.354200000000006     41.585099999999997     35.814700000000002
H      34.431000000000004     36.777199999999993     39.464500000000001
H      41.950500000000005     37.739500000000007     39.977699999999999
H      42.648299999999999     37.036799999999999     38.368600000000001
H      39.945399999999992     35.251600000000010     42.431699999999992
H      41.909300000000002     36.731899999999996     41.970199999999991
H      33.582800000000006     39.068300000000008     37.118899999999996
H      36.541600000000003     38.094800000000006     35.967500000000001
H      43.106700000000004     38.957400000000007     38.701900000000009
N      41.957499999999996     40.925799999999995     37.113399999999999
O      32.645799999999994     37.267899999999997     37.485700000000008
