5

C      37.983419999999995     38.032649999999990     38.017799999999994
H      38.400049999999993     37.248650000000005     38.724600000000009
H      38.829840000000004     38.751349999999995     37.539099999999991
H      37.170159999999996     38.230649999999997     38.815200000000004
H      37.574640000000002     37.660249999999998     37.184799999999996
