5

C      37.948799999999991     37.913100000000000     37.985549999999989
H      37.447000000000003     37.802500000000009     36.945450000000001
H      38.552999999999997     36.977699999999999     37.956749999999992
H      37.995300000000000     38.213999999999999     39.054549999999999
H      38.386099999999999     39.022300000000001     37.514249999999997
