6

C      37.750000000000000     38.416549999999994     37.860699999999994
H      39.079099999999997     36.735150000000004     37.195000000000000
H      37.601900000000001     39.264849999999996     37.191500000000005
H      38.058499999999995     39.186850000000007     38.808499999999995
H      36.920900000000003     37.813450000000003     37.912699999999994
O      39.076599999999999     37.539550000000006     37.679000000000002
