6

C      38.838949999999990     38.063299999999998     38.043894999999992
C      37.371049999999997     38.232799999999997     37.946835000000007
H      36.499749999999999     37.884500000000010     38.561864999999997
H      37.097349999999999     37.926000000000009     36.896495000000002
H      39.500250000000001     37.962400000000009     37.201625000000007
H      39.176150000000000     37.767200000000003     39.103504999999998
