9

C      37.202699999999993     38.257299999999994     37.322150000000001
C      37.828799999999987     38.433500000000002     38.571349999999995
C      39.227499999999992     37.794200000000004     38.772850000000005
H      36.212000000000003     38.704299999999996     37.077250000000006
H      37.678599999999989     37.691200000000002     36.450850000000003
H      37.335799999999992     39.126199999999997     39.135450000000006
H      39.787999999999997     38.495100000000001     39.549149999999997
H      39.733799999999988     37.619999999999997     37.759450000000001
H      39.139499999999998     36.873800000000003     39.361850000000004
