8

C      37.485199999999992     37.380549999999999     38.398749999999993
C      38.438900000000004     38.482450000000000     38.110250000000008
H      38.155500000000004     36.564050000000002     38.609150000000000
H      36.887300000000010     36.878650000000007     37.507450000000006
H      36.721400000000003     37.810749999999999     39.126550000000009
H      38.731000000000009     38.129750000000001     36.873449999999991
H      39.278599999999997     38.110350000000004     38.658650000000009
H      38.172299999999993     39.435949999999998     38.552950000000010
