5

C      38.463309499999994     36.989449999999991     37.645550000000000
C      38.249109500000003     38.446849999999998     38.232450000000000
H      37.536690500000006     40.015450000000001     38.827050000000000
N      38.371799500000009     39.419549999999987     38.911249999999995
O      38.234029500000005     35.984549999999999     37.088750000000005
