16

C      38.466849999999994     37.097055499999982     38.460149999999999
C      38.110450000000007     36.453455500000004     37.231449999999995
C      37.607550000000010     37.469455499999981     36.248750000000001
C      37.546250000000001     38.821555500000002     36.247249999999994
C      37.932549999999999     39.409155499999997     37.455449999999999
C      38.425649999999997     38.550155500000002     38.448250000000002
C      39.012950000000011     38.855655499999997     39.865049999999997
H      38.766650000000006     36.499955499999999     39.228049999999996
H      38.220550000000010     35.435455500000003     37.096249999999998
H      37.563350000000007     36.720255499999993     35.240150000000000
H      37.849549999999994     40.564544499999997     37.658749999999998
H      40.201949999999997     38.349455500000005     39.974750000000000
H      38.521750000000004     38.363255499999994     40.759850000000000
H      38.803550000000008     39.922071899999992     39.889750000000006
H      35.798050000000003     39.778455499999993     35.600549999999998
O      36.623750000000001     39.189755500000004     35.305250000000001
