5

C      38.042249999999996     37.873599999999996     37.806500000000000
H      38.726649999999992     37.127200000000002     37.350200000000001
H      37.068250000000006     37.569400000000002     38.366500000000002
H      38.931749999999994     37.789300000000004     38.649799999999999
H      38.175449999999998     38.872799999999998     37.377900000000011
