6

C      37.433032499999996     37.883699999999990     38.272049999999993
C      38.789892500000001     37.802799999999998     38.000149999999991
H      36.622917500000000     38.381000000000000     37.530449999999988
H      37.231852500000002     37.619000000000000     39.274749999999997
H      39.377082500000000     37.862900000000003     38.948949999999996
H      39.000552499999998     38.039700000000003     36.725250000000003
