38

C      37.905249999999995     38.128429999999994     38.424599999999991
C      37.059849999999997     39.184730000000002     37.919499999999999
C      36.083449999999999     36.418330000000012     34.522500000000001
C      37.824250000000006     36.840430000000012     37.773699999999998
C      36.173850000000002     39.164130000000000     36.780300000000004
C      36.903350000000003     35.789929999999998     35.519600000000004
C      37.248050000000006     36.879630000000006     36.420900000000003
C      36.387350000000012     38.005530000000007     36.020000000000003
C      39.265350000000012     38.668229999999994     38.744000000000000
C      39.162849999999992     39.936430000000001     39.391500000000001
C      38.253150000000005     40.887829999999994     39.113199999999999
C      37.258950000000013     40.577429999999993     38.246600000000001
C      39.901049999999998     37.610630000000000     39.507199999999997
C      40.551549999999992     38.033930000000012     40.611400000000003
C      40.592250000000007     39.324130000000011     41.282800000000002
C      40.352249999999998     40.240030000000004     40.239499999999992
C      39.013450000000006     35.847830000000002     37.913200000000003
C      39.759350000000012     36.065430000000006     39.265999999999998
C      35.647350000000003     35.729230000000001     33.268399999999993
C      38.470750000000010     34.352879999999999     38.125699999999995
H      36.583750000000009     42.634329999999991     38.802799999999998
H      35.615150000000014     39.981430000000003     36.447599999999994
H      36.459850000000003     34.851930000000010     35.675100000000000
H      38.439849999999993     41.727830000000012     39.706600000000002
H      40.756750000000011     37.399729999999991     41.415799999999990
H      40.293750000000003     41.318830000000005     40.307200000000002
H      39.703349999999986     35.973330000000004     36.956099999999999
H      39.245550000000009     35.407330000000002     39.959499999999998
H      40.710349999999991     35.643430000000009     38.950499999999998
H      35.088950000000011     34.106270000000009     32.303300000000000
H      39.503750000000011     39.764530000000008     43.741500000000002
H      37.330050000000014     34.548530000000000     37.855400000000003
H      38.721650000000011     33.365670000000009     37.685800000000000
H      38.296350000000004     33.960430000000002     39.228000000000002
N      35.807150000000007     37.663030000000006     34.917000000000002
O      35.112050000000011     35.289730000000006     32.258499999999998
O      36.278850000000006     41.448330000000013     38.603700000000003
S      40.911049999999989     39.697329999999994     43.116000000000000
