7

C      37.961599999999990     38.538899999999998     37.967900000000000
C      38.479900000000001     37.422600000000010     37.476099999999988
H      38.253100000000003     39.444600000000001     37.580600000000004
H      39.499099999999999     37.425399999999996     37.062000000000012
H      37.880800000000008     36.555399999999999     37.792500000000004
H      36.500900000000001     39.349900000000005     38.937999999999988
O      36.997399999999999     38.429600000000001     38.936200000000014
