37

C      38.238349999999990     38.915749999999989     38.389399999999995
C      38.844149999999999     39.347449999999995     37.197600000000001
C      39.896749999999997     34.819649999999996     37.097199999999994
C      38.339749999999995     37.574050000000000     38.857099999999996
C      39.421349999999990     38.413049999999998     36.297400000000003
C      39.345949999999995     35.200149999999994     38.329799999999999
C      39.874949999999998     35.801649999999995     36.085300000000004
C      38.994650000000000     36.602350000000001     37.938000000000002
C      39.422749999999994     37.062550000000002     36.666100000000000
C      37.189050000000002     39.852450000000005     38.925399999999996
C      37.308650000000000     41.190650000000005     38.295299999999997
C      38.554049999999997     41.744850000000000     37.530600000000000
C      38.936649999999993     40.775850000000005     36.918599999999998
C      37.442349999999990     36.981249999999989     39.930299999999995
C      36.315049999999999     38.105949999999993     40.280099999999997
C      36.119650000000000     39.413349999999994     39.789600000000000
C      39.941350000000000     38.861050000000006     34.916100000000000
C      40.746949999999991     40.159649999999999     35.147199999999998
C      40.123950000000001     41.141350000000003     35.939499999999995
C      39.185549999999999     34.415649999999999     39.678499999999993
C      35.144349999999996     40.269649999999999     40.580399999999997
H      40.365949999999998     33.890450000000001     36.585400000000000
H      40.597249999999988     36.015349999999998     35.358300000000000
H      36.649450000000002     41.960650000000001     38.475400000000000
H      37.607549999999996     36.533150000000006     40.940100000000001
H      36.909450000000000     36.302649999999986     39.314299999999996
H      35.427549999999997     37.618250000000003     40.745800000000003
H      41.827750000000002     40.358949999999993     34.762100000000004
H      38.729549999999996     39.050349999999995     34.378799999999998
H      40.596349999999994     38.020049999999998     34.431600000000003
H      40.653749999999988     42.229349999999997     35.936599999999999
H      38.637650000000001     35.117949999999993     40.526499999999999
H      35.350449999999995     40.011250000000004     41.621200000000002
H      35.127949999999998     41.378249999999994     40.653199999999991
H      34.172249999999998     39.865149999999986     40.445399999999999
H      39.185749999999992     42.716949999999997     37.556899999999992
O      39.528449999999992     33.283050000000003     39.990599999999993
