6

C      37.412594999999996     37.778049999999986     37.726799999999997
C      38.466424999999987     38.224149999999995     38.469200000000001
H      37.219394999999992     36.762050000000002     37.314400000000006
H      36.763575000000003     38.541149999999995     37.203799999999994
H      38.766964999999999     39.237949999999998     38.566900000000004
H      39.236424999999997     37.420450000000002     38.796200000000006
