6

C      37.789199999999994     37.942049999999995     37.335599999999999
C      37.884299999999996     37.900450000000006     38.657400000000010
H      37.943499999999986     37.055750000000003     36.648300000000006
H      37.611900000000006     38.961650000000006     36.949820000000003
H      37.736699999999985     38.748950000000008     39.351699999999994
H      38.388099999999994     37.038349999999994     39.004700000000000
