90

C      41.111099999999993     38.539979999999993     42.988799999999991
C      41.444299999999991     37.067880000000002     43.074599999999997
C      45.271599999999999     39.213879999999996     44.546400000000006
C      41.865499999999997     39.733879999999999     43.310000000000002
C      42.813899999999997     36.776479999999999     43.302599999999998
C      44.261999999999986     40.074880000000000     44.173400000000001
C      44.889199999999988     37.867179999999991     44.147400000000005
C      43.200599999999994     39.448079999999997     43.554900000000004
C      43.617899999999999     37.978579999999994     43.490199999999994
C      39.717300000000002     38.801479999999998     43.100399999999993
C      38.664999999999999     37.788879999999999     43.013100000000001
C      39.077199999999998     36.364379999999997     43.110900000000001
C      40.436900000000001     36.009779999999992     43.087099999999992
C      39.195500000000003     40.157279999999993     43.361099999999993
C      37.758400000000002     40.477280000000000     43.258200000000002
C      36.789999999999999     39.415579999999991     43.079400000000000
C      37.203299999999992     37.996879999999997     42.923099999999998
C      40.136399999999995     41.278880000000001     43.430900000000001
C      38.206099999999999     35.173679999999997     43.100499999999997
C      38.649999999999999     33.922179999999997     43.694899999999997
C      39.955199999999998     33.760179999999998     44.223599999999990
C      40.768799999999992     34.856380000000001     43.819000000000003
C      36.477600000000002     36.860379999999999     42.436399999999999
C      36.958599999999997     35.547080000000001     42.438800000000001
C      43.068300000000001     35.648579999999995     44.005299999999998
C      42.177799999999998     34.661479999999997     44.192300000000003
C      35.620699999999985     39.651479999999999     42.232100000000003
C      36.255900000000004     40.405780000000000     41.098900000000000
C      35.862199999999994     36.634779999999999     37.122100000000003
C      36.919099999999993     36.959379999999996     38.131000000000000
C      33.077100000000002     38.329679999999996     40.271999999999998
C      34.442399999999999     36.632080000000002     37.275399999999998
C      36.503599999999999     37.640279999999997     39.197400000000002
C      32.799700000000001     37.355879999999999     39.264800000000001
C      34.129300000000001     37.088780000000000     38.724200000000003
C      35.087299999999999     37.748480000000001     39.430300000000003
C      36.394500000000001     36.515380000000000     35.781199999999998
C      37.772500000000001     36.667479999999998     35.516400000000004
C      38.877199999999995     36.347879999999996     36.376800000000003
C      38.338299999999997     36.892679999999999     37.609899999999996
C      35.215299999999992     36.339280000000002     34.802099999999996
C      35.667899999999996     37.053879999999999     33.622300000000003
C      37.040399999999998     37.348379999999999     33.554199999999994
C      33.818399999999997     36.041379999999997     35.078400000000002
C      33.427299999999995     36.099280000000000     36.362000000000002
C      40.266100000000002     36.027879999999989     36.228300000000004
C      41.010100000000001     35.762279999999997     37.294100000000000
C      40.811699999999995     36.775979999999997     38.417200000000001
C      39.291800000000002     37.191980000000001     38.654000000000003
C      37.687000000000005     38.375979999999998     39.917500000000004
C      39.047599999999996     37.845779999999998     39.868299999999991
C      34.835599999999999     37.189180000000000     32.161099999999998
C      31.940599999999993     39.127079999999999     40.835899999999995
C      30.467999999999996     38.761579999999988     40.637400000000000
C      37.561299999999996     39.603279999999998     40.580799999999996
H      33.812699999999992     37.126579999999997     32.306800000000003
H      46.380800000000001     39.548979999999993     44.991399999999999
H      44.492199999999997     41.103479999999990     44.536100000000005
H      45.785099999999993     37.295580000000001     43.875599999999999
H      37.577000000000005     41.503979999999991     43.607900000000001
H      37.951199999999993     33.119749999999996     43.762699999999995
H      40.300699999999999     32.622219999999999     44.769900000000007
H      35.555199999999992     36.785080000000001     42.000100000000003
H      36.326000000000001     34.733579999999996     42.037700000000001
H      44.064000000000000     35.243179999999995     44.181799999999996
H      42.504899999999999     33.822379999999995     44.880499999999998
H      36.404499999999992     41.454779999999992     41.371799999999993
H      39.988099999999996     43.377780000000001     43.579199999999993
H      31.782399999999996     37.288080000000001     39.017499999999991
H      37.546699999999994     37.532480000000000     32.545500000000004
H      32.399299999999997     36.066779999999994     36.903500000000001
H      33.012000000000000     35.829679999999996     34.284900000000000
H      41.912199999999991     35.302480000000003     37.451999999999998
H      41.235199999999992     37.750779999999999     38.093000000000004
H      39.786700000000003     37.798079999999999     40.683799999999998
H      29.619199999999999     39.380879999999998     40.856900000000003
H      30.272899999999996     38.785080000000001     39.547699999999999
H      30.201099999999997     37.757779999999997     41.135500000000000
H      40.394200000000005     36.583479999999994     34.519199999999998
H      35.573699999999995     40.630080000000000     40.164000000000001
H      38.570699999999988     39.924679999999995     40.636699999999998
H      41.483499999999992     36.514979999999987     39.361400000000003
N      41.338999999999992     40.984579999999994     43.364500000000000
N      34.421700000000001     38.329180000000001     40.520699999999998
N      38.053400000000003     37.118579999999994     34.296399999999991
O      34.776299999999999     40.188279999999992     42.939799999999991
O      39.605299999999993     42.511979999999994     43.521900000000002
O      35.284399999999998     37.257880000000000     31.008600000000001
O      32.135700000000000     39.973379999999992     41.620800000000003
O      40.586400000000005     35.787880000000001     34.931300000000000
