40

C      38.280799999999999     36.726700000000008     37.173049999999989
C      39.282499999999999     37.506200000000007     36.602049999999991
C      36.317700000000002     40.446000000000012     38.586649999999992
C      36.950199999999995     37.197600000000008     37.123149999999995
C      38.946199999999990     38.891200000000012     36.421349999999990
C      35.682400000000001     39.224400000000003     38.537949999999995
C      37.339399999999998     40.662400000000005     37.589049999999986
C      36.672899999999998     38.506800000000013     37.687649999999991
C      37.763900000000007     39.431300000000007     37.011849999999995
C      38.658500000000004     35.175899999999999     37.404849999999996
C      40.114099999999993     34.997700000000009     37.614350000000002
C      41.208399999999997     36.076000000000008     37.299750000000003
C      40.840000000000003     37.221400000000003     36.676850000000002
C      35.935199999999995     36.263800000000003     36.912750000000003
C      34.778000000000006     36.634400000000014     37.102449999999990
C      37.599800000000002     34.357100000000003     37.450449999999989
C      34.542699999999996     38.651900000000012     39.358549999999994
C      38.257599999999996     41.876700000000000     37.677949999999996
C      35.918700000000001     41.200200000000009     39.814349999999990
C      40.498099999999994     33.967300000000009     38.527849999999987
C      41.666100000000000     38.438300000000012     36.411349999999999
C      36.220600000000005     34.752800000000008     37.154749999999993
H      42.492000000000004     35.837800000000001     37.098749999999995
H      34.070999999999998     35.971000000000004     37.250549999999990
H      34.614999999999995     37.538800000000009     36.813850000000002
H      33.507999999999996     38.195400000000006     38.794049999999999
H      34.930300000000003     41.177100000000010     40.086449999999999
H      38.870599999999996     42.158799999999999     38.529349999999994
H      38.766499999999994     42.098700000000008     36.682149999999993
H      37.673299999999998     42.866500000000002     37.521850000000001
H      36.421000000000006     40.824300000000008     40.651049999999998
H      36.450800000000001     42.106800000000007     39.407950000000000
H      41.578299999999999     33.990900000000011     38.916949999999986
H      40.049400000000006     33.133499999999998     39.123349999999988
H      42.450099999999992     38.337500000000006     37.354749999999996
H      42.197000000000003     38.404900000000012     35.348950000000002
H      37.659599999999998     33.210100000000011     37.551749999999998
H      35.423299999999998     34.045500000000004     36.752849999999995
O      34.380200000000002     38.877700000000004     40.516949999999994
S      40.382900000000006     39.971900000000005     36.165049999999994
