35

C      38.481759999999994     39.236022149999997     38.912949999999995
C      37.028559999999999     39.270842150000007     38.585549999999998
C      38.206659999999999     35.225402150000008     35.792450000000002
C      36.814859999999996     35.123742150000005     35.992050000000006
C      39.237659999999991     38.327402150000005     38.025750000000002
C      36.293459999999996     38.103112150000008     38.232149999999990
C      38.947459999999992     36.328452150000004     36.227750000000000
C      36.398559999999989     36.043472149999999     36.944250000000011
C      38.524159999999995     37.294282150000008     37.320450000000008
C      37.098459999999989     37.181252150000006     37.470550000000003
C      39.098759999999999     40.182032149999998     39.757649999999998
C      38.429559999999995     41.336062149999997     40.143849999999986
C      36.987659999999991     41.333522150000007     39.987050000000011
C      36.453159999999997     40.553322150000000     38.998850000000004
C      40.716022000000009     38.008912150000008     38.257750000000001
C      41.013946000000004     36.658832150000009     37.980150000000009
C      40.436459999999997     40.154232150000006     40.503050000000002
C      34.932059999999993     40.897832150000006     38.715249999999997
H      38.829759999999993     34.509955150000003     35.131750000000011
H      35.285359999999997     38.019192150000009     38.217449999999999
H      39.898460000000000     36.669242150000009     35.995549999999994
H      35.326159999999987     35.906372149999996     37.288150000000002
H      38.853659999999991     42.139712150000001     40.816450000000003
H      36.364859999999993     42.065152150000010     40.643450000000001
H      41.657380000000003     38.494892150000005     38.764449999999997
H      41.896740000000008     35.959032149999999     37.781649999999999
H      40.319759999999988     35.848372150000003     37.711250000000007
H      40.509059999999991     41.227992150000006     40.735350000000011
H      41.351220000000012     39.849312150000003     39.982250000000008
H      35.740060000000000     33.860287849999999     34.802850000000007
H      34.228059999999999     39.917112150000001     38.649250000000009
H      34.103259999999992     41.481332150000000     38.069950000000006
H      34.746659999999991     41.222772150000004     39.639050000000012
H      40.454960000000000     39.431442150000009     41.197149999999993
O      36.139759999999995     33.916622150000009     35.670050000000003
