47

C      38.911699999999996     37.019289999999998     37.113749999999996
C      34.843800000000002     42.396140000000003     34.880950000000013
C      39.375999999999991     38.305580000000006     37.131450000000001
C      36.179899999999996     42.517430000000004     35.176350000000014
C      37.432499999999997     36.808480000000003     36.950450000000004
C      34.124900000000004     41.418040000000005     35.569850000000002
C      38.494399999999999     39.424230000000009     37.004750000000001
C      36.924900000000001     41.512420000000006     35.864750000000001
C      35.070700000000002     37.826590000000010     36.500650000000007
C      34.245899999999999     38.870140000000006     35.943350000000009
C      36.475099999999991     37.889219999999995     36.616150000000005
C      34.875300000000003     40.217000000000013     35.827550000000002
C      37.071800000000003     39.181340000000006     36.623550000000009
C      36.245899999999999     40.284370000000010     36.313250000000011
C      38.972999999999999     40.763740000000013     36.897150000000011
C      38.201300000000003     41.886270000000010     36.285650000000004
C      39.960599999999999     36.000710000000012     37.053350000000009
C      41.276000000000003     36.488280000000003     37.403450000000007
C      41.837899999999998     37.839200000000005     37.510550000000009
C      40.864500000000000     38.728840000000005     37.208350000000010
C      41.389599999999994     40.015570000000011     37.002650000000003
C      40.379700000000000     41.031590000000008     37.030450000000002
C      36.252800000000001     34.155109999999993     39.747350000000012
C      36.495899999999999     35.288440000000008     39.066250000000011
C      39.533600000000000     34.600878000000009     36.800150000000002
C      40.388500000000001     33.456310000000002     36.402650000000008
C      36.871099999999998     36.273910000000001     40.301850000000002
C      36.977699999999999     35.542540000000002     37.695550000000011
H      34.232199999999999     43.226379999999992     34.678650000000005
H      36.611200000000004     43.365390000000005     34.965350000000001
H      33.084299999999999     41.573950000000011     35.478850000000008
H      34.405500000000004     36.923140000000004     36.711150000000004
H      33.220700000000001     38.810850000000002     35.643650000000008
H      38.605899999999998     42.922150000000002     35.883949999999999
H      41.930700000000002     35.676220000000001     37.562049999999999
H      42.915700000000001     38.025350000000003     37.718550000000008
H      42.403199999999991     40.415300000000002     37.098250000000007
H      40.635400000000004     42.047940000000011     36.591850000000008
H      35.937400000000004     34.069610000000011     40.749549999999999
H      35.838500000000003     33.331410000000005     39.428850000000011
H      39.906099999999995     32.634609999999995     35.926150000000007
H      41.183399999999999     33.690110000000004     35.786050000000003
H      37.860300000000002     36.474920000000012     40.517950000000013
H      36.608099999999993     37.327580000000012     39.955750000000009
H      36.732799999999990     36.166730000000001     41.321349999999995
H      36.645000000000003     35.066729000000009     36.780450000000002
H      38.627600000000001     34.116210000000009     37.293250000000000
