16

C      37.781999999999996     38.266449999999992     37.961799999999990
C      38.838499999999996     38.567949999999996     37.210299999999997
C      39.768500000000003     39.498549999999994     37.856400000000001
C      39.524299999999997     39.797449999999998     39.133199999999995
C      37.766700000000000     38.590349999999987     39.387299999999996
C      36.737799999999993     37.328050000000005     37.219699999999996
C      36.500599999999991     36.160150000000002     38.181100000000001
H      36.906999999999996     35.336849999999998     37.591899999999995
H      35.455200000000005     35.713949999999997     38.198399999999999
H      38.721499999999992     38.143450000000001     36.033600000000000
H      40.544799999999995     39.644750000000002     36.992799999999995
H      40.182000000000002     40.663150000000002     39.799399999999999
H      37.198599999999999     37.711550000000003     39.815100000000001
H      36.966300000000004     36.058549999999997     39.258200000000002
N      38.577699999999993     39.496049999999997     39.966400000000000
O      36.506100000000004     37.333749999999995     36.045299999999997
