30

C      38.322309999999987     36.954349999999998     38.192245000000000
C      37.601969999999994     37.469250000000002     39.406045000000006
C      36.629689999999997     41.216950000000004     37.305345000000003
C      38.551360000000003     38.052950000000003     37.224145000000007
C      36.487409999999997     38.367950000000000     39.212445000000002
C      37.804069999999996     40.647849999999998     36.701845000000006
C      37.976229999999987     39.370450000000005     37.453845000000001
C      36.821089999999998     39.452450000000006     38.372045000000000
C      38.899850000000001     35.698450000000001     37.938744999999997
C      39.313000000000002     35.138750000000002     39.277644999999993
C      38.578620000000001     35.464449999999999     40.432945000000004
C      37.871650000000002     36.596950000000000     40.493944999999997
C      39.043469999999999     37.479649999999999     36.012344999999996
C      38.975399999999993     35.276550000000000     36.669345000000007
C      38.941239999999993     36.114650000000005     35.612045000000009
C      39.389309999999995     38.374349999999993     34.797964999999991
H      36.232640000000004     37.191450000000003     42.045945000000003
H      35.843639999999994     41.902749999999997     36.978845000000007
H      38.369600000000005     41.009350000000005     35.738095000000001
H      35.527820000000006     38.487449999999995     39.741844999999998
H      39.638689999999997     34.251750000000001     39.537445000000005
H      39.229579999999999     34.186250000000001     41.498944999999992
H      39.199049999999986     35.591950000000004     34.595725000000002
H      39.003239999999991     34.097250000000003     36.770645000000002
H      38.947919999999996     38.472150000000006     33.954054999999997
H      39.226699999999994     39.360950000000003     35.103615000000005
H      40.472179999999994     38.049950000000003     34.788735000000003
N      35.977530000000002     40.477050000000006     38.306444999999997
O      38.292209999999997     34.519350000000003     41.481144999999998
O      36.961079999999995     36.428650000000005     41.486345000000000
