5

C      37.809799999999996     37.885049999999993     38.078849999999996
H      37.087200000000003     37.289650000000002     38.830249999999999
H      38.238500000000009     37.306249999999999     37.169750000000001
H      38.912799999999997     38.058549999999990     38.360250000000001
H      37.409300000000009     38.710349999999998     37.589449999999999
