36

C      37.577799999999996     38.364300000000000     39.390599999999992
C      37.652799999999999     39.801000000000002     39.195000000000007
C      35.289900000000003     38.812199999999990     35.529300000000006
C      36.511900000000004     37.460099999999997     38.748599999999996
C      36.950200000000002     40.547300000000007     38.170000000000002
C      35.580300000000001     37.708200000000005     36.462500000000006
C      35.574600000000004     40.065500000000000     36.161699999999996
C      35.857700000000008     38.192800000000005     37.786600000000007
C      36.149200000000008     39.703499999999991     37.419800000000009
C      38.601400000000005     37.557500000000005     39.955100000000002
C      39.659300000000009     38.258399999999995     40.722200000000001
C      39.756500000000003     39.725999999999999     40.731200000000001
C      38.738100000000003     40.399400000000000     40.009100000000004
C      38.504200000000004     36.095200000000006     40.036000000000001
C      39.686000000000007     35.495199999999997     40.713099999999997
C      40.920400000000001     36.114100000000008     40.890700000000010
C      40.837899999999998     37.567499999999995     40.901499999999999
C      37.285000000000004     35.387200000000007     39.944600000000008
C      36.396400000000007     36.051400000000001     39.183700000000002
C      35.087200000000003     35.295699999999997     39.225999999999999
H      37.432300000000005     42.296800000000005     38.662000000000006
H      34.849800000000009     38.510400000000004     34.475700000000003
H      35.750500000000002     36.636099999999999     36.192000000000007
H      35.309700000000007     41.096000000000004     35.656599999999997
H      40.258800000000008     40.317899999999995     41.442999999999998
H      38.810200000000009     41.491100000000003     39.956400000000002
H      41.601400000000005     35.754700000000000     41.524299999999997
H      41.603299999999997     38.231099999999998     40.736900000000006
H      37.047700000000006     34.566499999999991     40.607699999999994
H      34.921100000000003     34.799700000000001     40.220399999999998
H      39.924900000000008     33.703199999999995     41.237300000000005
H      35.722000000000008     33.953100000000006     37.836500000000001
H      34.396700000000003     35.916700000000006     38.737400000000008
O      34.857400000000005     34.156300000000002     38.196700000000007
O      36.989200000000004     41.897000000000006     37.860799999999998
O      39.227600000000002     34.180499999999995     41.178500000000000
