7

C      37.425099999999993     38.826514999999993     38.144999999999996
C      38.491199999999999     37.783065000000001     37.763800000000003
H      36.755499999999998     39.119424999999993     37.385499999999993
H      37.336900000000000     39.264054999999999     39.164500000000004
H      38.210499999999996     36.735945000000001     37.171099999999996
H      39.244500000000002     38.151355000000002     36.835499999999996
H      39.188400000000001     37.483384999999998     38.626700000000000
