6

C      38.260499999999993     38.053849999999997     38.339149999999989
C      37.645699999999998     37.653250000000000     37.361450000000005
H      39.290900000000001     37.640149999999998     38.524850000000001
H      36.709099999999999     37.574449999999999     36.976749999999996
H      38.676699999999997     37.882550000000002     36.633449999999996
H      37.744300000000003     38.425550000000001     39.366550000000004
