6

C      37.806749999999994     37.484349999999999     37.594099999999997
C      38.243350000000007     38.517049999999990     38.262099999999990
H      37.616350000000004     36.499849999999995     37.905499999999989
H      37.271750000000004     37.607249999999993     36.636300000000006
H      38.728249999999996     38.307050000000004     39.363699999999994
H      38.394350000000003     39.500150000000005     37.806699999999992
