55

C      34.923449999999988     32.570749999999990     36.589929999999995
C      41.260350000000003     42.610549999999989     36.027630000000002
C      40.239750000000001     41.455750000000009     36.395830000000004
C      36.683849999999993     37.081049999999991     37.403330000000004
C      37.603449999999995     37.213450000000009     38.633629999999997
C      36.529550000000000     32.575649999999996     38.367930000000008
C      35.764849999999996     36.018550000000005     37.243330000000000
C      37.740449999999996     35.967250000000007     39.327230000000007
C      35.832349999999991     33.421149999999997     37.476130000000005
C      37.080449999999999     33.377150000000000     39.403430000000000
C      36.046750000000003     34.787750000000003     37.958430000000000
C      36.973050000000001     34.889949999999999     39.092330000000004
C      36.262450000000001     38.360650000000007     36.879330000000003
C      37.295950000000005     39.353049999999996     36.854829999999993
C      38.242349999999988     39.624349999999993     37.837729999999993
C      38.149349999999998     38.515749999999983     38.878730000000004
C      35.038549999999987     38.526249999999990     35.985930000000003
C      35.462750000000000     39.820549999999997     35.456430000000005
C      36.678950000000000     40.636149999999986     35.997029999999995
C      38.163449999999997     43.049850000000006     36.635730000000002
C      34.310450000000003     37.255350000000007     35.621729999999999
C      34.537649999999999     36.154849999999996     36.453630000000004
C      38.813249999999996     40.901649999999989     38.119330000000005
C      38.953949999999992     41.166849999999997     39.525230000000001
C      39.070049999999995     40.026449999999997     40.409230000000001
C      38.667649999999995     38.798450000000003     40.179330000000000
C      38.822949999999992     42.501649999999998     40.192630000000001
C      38.470150000000004     43.713750000000005     39.312729999999995
C      37.507850000000005     32.663849999999996     40.506629999999994
C      39.035449999999997     42.007649999999998     37.127229999999997
H      35.335750000000004     32.659450000000007     35.709530000000008
H      33.965050000000005     32.782849999999996     36.841530000000006
H      35.062049999999999     31.416750000000004     36.617329999999995
H      42.369649999999993     42.369250000000008     36.330830000000006
H      40.046449999999993     40.555750000000003     35.654430000000005
H      41.193949999999987     42.450649999999996     35.097029999999997
H      40.667050000000003     40.860149999999990     37.127629999999996
H      36.413950000000000     31.533249999999999     38.369830000000000
H      38.448249999999987     35.969750000000005     40.158030000000004
H      34.986749999999986     40.182350000000000     34.452170000000002
H      36.312950000000001     41.427750000000003     36.663629999999998
H      33.630350000000007     37.401749999999993     34.843980000000002
H      33.832650000000001     35.367249999999984     36.536030000000004
H      39.515649999999994     40.232149999999990     41.378730000000004
H      38.476349999999996     38.011850000000010     41.029930000000000
H      37.795549999999992     44.583249999999992     39.491130000000005
H      39.542549999999991     44.063350000000000     38.880830000000003
H      37.900449999999992     43.141649999999998     38.539730000000006
H      37.381850000000000     31.508949999999995     40.324429999999992
H      37.832749999999990     32.982450000000000     41.547829999999998
H      38.449249999999992     43.994149999999991     35.942530000000005
H      37.202049999999986     41.252250000000004     35.261330000000008
H      37.279150000000001     43.316749999999985     37.223730000000003
H      41.619749999999996     43.627750000000006     36.371630000000003
O      38.981250000000003     42.550949999999986     41.381630000000001
