6

C      37.351694999999978     38.217249999999993     38.131399999999999
C      38.622595000000004     37.811150000000005     37.573399999999992
H      37.247495000000001     38.118149999999993     39.333900000000000
H      36.541595000000001     38.908249999999995     37.608800000000002
H      39.458404999999999     37.091750000000005     37.934200000000004
H      39.009875000000008     38.050449999999998     36.666100000000000
