9

C      37.286568999999986     37.095950000000002     37.076999999999998
C      37.761569000000009     38.454450000000008     37.367000000000004
C      38.844869000000003     38.561050000000009     38.441100000000006
H      36.283269000000004     36.764350000000007     36.576800000000006
H      37.822168999999988     36.323449999999994     37.400800000000004
H      37.227069000000000     39.406949999999995     37.101699999999994
H      39.716730999999996     37.762649999999994     38.284099999999995
H      39.124901000000008     39.676550000000006     38.722600000000000
H      38.354868999999994     38.507649999999998     39.423199999999994
