16

C      39.518712999999998     38.297749999999986     39.942149999999998
C      38.415613000000000     37.394049999999986     39.931750000000001
C      37.529812999999997     37.669749999999993     38.978650000000002
C      37.561513000000005     38.702749999999995     37.892850000000003
C      38.727412999999999     39.392049999999998     37.812950000000001
C      39.567813000000001     39.415449999999993     39.029050000000005
C      37.069313000000008     38.405950000000004     36.425950000000000
H      40.354361000000011     37.935749999999999     40.514950000000006
H      40.513187000000002     39.676649999999995     38.684150000000002
H      35.486812999999998     37.565249999999992     37.916850000000004
H      38.077913000000009     40.428849999999997     36.334850000000003
H      38.487212999999997     35.571150000000003     39.980650000000004
O      36.614713000000009     38.185949999999991     35.389150000000001
O      38.973213000000001     40.232849999999999     36.776850000000003
O      38.156713000000011     36.218850000000003     40.610850000000006
S      36.122813000000008     36.590750000000000     38.700550000000007
