6

C      37.406250000000000     38.201049999999995     37.747399999999999
C      38.370350000000002     37.826450000000008     38.598900000000000
H      37.625550000000004     39.274950000000004     37.774700000000010
H      38.927350000000004     38.667850000000001     39.136299999999991
H      38.665750000000003     36.725049999999996     38.732000000000014
H      37.072649999999996     37.447749999999999     36.863700000000009
