40

C      39.177644999999998     36.513339999999985     38.047399999999996
C      38.244045000000007     37.294839999999979     38.838499999999996
C      38.432745000000004     40.039410000000004     34.897200000000005
C      37.704745000000003     40.859440000000006     35.859400000000008
C      39.275245000000005     36.934539999999998     36.669800000000002
C      38.050145000000001     38.687878999999995     38.889100000000006
C      38.599645000000002     38.742952000000002     35.291899999999998
C      37.615545000000004     40.502600000000001     37.223700000000001
C      38.722845000000007     38.339539999999985     36.520000000000003
C      38.323245000000007     39.224728000000013     37.675400000000003
C      39.748245000000004     35.207039999999978     38.606200000000008
C      38.888245000000005     34.424739999999986     39.478200000000001
C      37.627245000000009     34.908239999999992     39.527100000000004
C      37.386545000000005     36.432040000000001     39.495300000000007
C      40.736945000000006     34.248940000000005     38.067499999999995
C      37.541745000000006     39.260615999999999     40.208500000000008
C      34.996735000000008     37.404039999999981     40.118400000000001
C      36.083675000000007     36.917040000000000     39.586500000000008
C      36.448135000000008     34.348140000000001     40.306100000000001
C      37.884144999999997     34.492239999999981     42.189899999999994
C      36.703045000000003     33.970939999999999     41.565800000000003
H      38.465145000000007     39.012999000000008     40.897200000000005
H      38.841245000000008     37.817139999999981     34.644500000000008
H      37.014245000000010     41.196390000000008     37.818700000000007
H      39.042945000000003     33.462739999999982     39.832700000000003
H      41.908944999999996     34.184339999999992     38.437500000000000
H      41.041945000000005     34.242540000000005     37.050800000000002
H      37.294645000000003     40.323329999999999     39.983599999999996
H      36.560745000000004     38.839736000000002     40.431700000000014
H      34.091055000000004     37.478839999999991     40.923200000000001
H      34.457915000000007     37.992039999999989     39.444300000000005
H      35.580344999999994     34.349440000000001     39.831699999999998
H      37.873545000000007     42.785060000000001     35.917700000000011
H      38.453345000000006     38.688424999999995     32.662400000000005
H      39.279545000000006     35.990740000000002     36.169200000000011
H      37.714045000000006     34.600840000000005     43.337599999999995
H      38.813545000000005     34.975439999999992     41.870600000000003
H      36.074875000000006     33.214939999999999     41.957300000000004
O      37.396945000000009     42.159210000000002     35.504500000000000
S      38.105245000000004     40.061740000000000     33.125700000000009
