6

C      38.024349999999998     38.418449999999993     38.039464999999993
H      37.495850000000004     36.701949999999997     37.202565000000000
H      37.272649999999999     39.141950000000008     38.411764999999995
H      38.095150000000004     37.891450000000006     39.117764999999999
H      38.727350000000001     39.298050000000003     37.733865000000002
O      37.727850000000004     37.642250000000004     36.882235000000001
