38

C      38.669749999999993     38.321569999999994     38.462549999999993
C      38.111550000000001     39.607633000000007     38.780649999999994
C      35.280350000000006     37.744869999999999     35.314750000000004
C      38.198450000000001     37.333369999999995     37.381249999999994
C      37.139050000000005     39.962800000000009     37.790549999999996
C      36.636550000000000     36.674469999999985     35.467950000000002
C      35.508450000000003     39.115006999999999     35.858249999999998
C      37.223149999999997     37.805069999999994     36.484150000000000
C      36.716550000000005     39.133718000000009     36.663049999999998
C      39.807749999999999     38.043669999999999     39.299349999999990
C      39.736249999999991     38.689869999999992     40.719949999999997
C      38.989249999999998     39.889663999999996     40.997150000000005
C      38.046849999999999     40.208690000000004     40.079149999999998
C      40.128250000000001     36.619769999999995     38.991549999999989
C      40.925750000000001     36.372570000000003     40.119549999999990
C      41.609050000000003     37.005770000000005     41.195650000000001
C      40.799849999999992     38.298669999999994     41.425049999999999
C      38.645450000000004     35.976369999999996     37.192949999999996
C      39.688850000000002     35.482369999999996     38.063749999999999
C      35.968350000000001     35.462169999999993     36.034949999999995
C      36.980350000000001     36.578370000000000     34.277349999999998
C      34.437350000000002     37.199170000000002     34.327950000000001
H      34.618749999999999     39.968730000000008     35.756650000000008
H      38.996650000000002     40.599560000000004     41.857250000000008
H      37.280350000000006     41.047650000000004     40.162949999999995
H      40.950849999999996     35.268570000000004     40.119850000000000
H      42.433550000000004     36.570869999999985     41.675249999999991
H      40.767449999999997     38.801369999999991     42.502749999999992
H      38.694749999999999     35.455170000000003     36.162350000000004
H      40.385649999999998     34.705170000000003     37.827050000000000
H      35.753450000000001     34.467869999999991     35.691950000000006
H      36.593550000000000     41.532130000000009     38.680149999999998
H      36.320650000000001     36.603969999999997     33.497250000000008
H      37.986850000000004     37.113269999999993     33.900050000000007
H      33.566449999999996     37.661769999999997     33.865949999999998
H      34.528950000000002     36.080069999999999     34.071349999999995
O      35.991949999999996     35.332569999999997     37.228849999999994
O      36.226850000000006     40.902580000000007     38.008949999999999
