5

C      37.691350000000000     37.862800000000000     37.769499999999994
H      37.983049999999999     38.848099999999995     37.463600000000000
H      38.861950000000000     37.303200000000004     37.814299999999996
H      37.321950000000008     38.106500000000004     38.909399999999998
H      37.138050000000000     37.151900000000005     37.090600000000002
