72

C      39.210849999999994     44.046849999999992     35.944618999999989
C      33.024649999999994     40.038650000000004     34.974718999999993
C      35.032349999999994     35.432850000000002     37.272318999999996
C      34.675950000000000     36.635750000000002     36.549418999999986
C      43.613649999999993     42.249849999999995     39.802418999999986
C      42.359850000000002     42.575750000000006     39.093718999999993
C      36.373749999999994     35.360150000000004     37.768618999999987
C      35.480049999999999     37.907850000000003     36.701818999999986
C      43.390250000000002     41.176850000000009     40.697718999999992
C      41.761349999999993     41.552050000000001     38.054119000000000
C      38.346850000000003     36.385449999999992     38.856718999999998
C      37.376350000000002     38.909950000000002     37.728918999999991
C      40.153449999999992     37.524750000000004     40.206318999999993
C      39.311649999999993     39.936750000000004     38.725218999999996
C      37.150849999999998     36.542050000000003     38.098418999999993
C      36.551650000000002     37.789450000000002     37.603118999999992
C      42.439549999999997     40.183450000000001     40.311018999999987
C      39.025550000000003     37.537350000000004     39.298318999999992
C      38.414250000000003     38.853750000000005     38.765518999999998
C      41.221650000000004     38.438749999999999     40.115818999999988
C      41.768649999999994     40.351550000000003     39.094718999999998
C      40.773550000000000     39.230050000000006     38.855919000000000
C      40.348250000000000     42.136150000000008     37.761518999999993
C      39.227850000000004     41.128250000000001     37.879218999999992
C      38.272050000000000     41.085850000000001     36.913918999999993
C      37.366650000000000     40.024950000000004     36.948418999999987
C      36.012750000000004     40.320750000000004     36.228918999999991
C      35.042549999999999     39.283250000000002     36.205118999999996
C      34.185549999999999     34.283850000000001     36.828018999999998
C      32.842449999999999     34.562450000000005     36.394618999999992
C      32.456149999999994     35.904450000000004     36.341318999999999
C      33.282150000000001     37.021550000000005     36.612218999999996
C      32.726950000000002     38.448750000000004     36.747318999999990
C      33.720750000000002     39.443249999999999     35.824918999999994
C      36.712450000000004     33.884649999999993     37.961718999999988
C      35.837750000000000     32.859150000000000     37.589418999999992
C      34.477049999999998     33.002950000000006     37.180218999999994
C      42.055850000000000     43.810750000000006     38.406518999999989
C      41.220049999999993     44.131749999999997     37.311718999999997
C      38.998350000000002     35.035350000000001     39.212718999999993
C      36.590150000000001     31.564649999999997     37.645418999999990
C      40.166950000000000     43.285950000000007     36.952218999999999
C      41.232250000000001     38.670150000000000     37.361218999999991
H      42.422850000000004     41.476350000000004     37.221919000000000
H      38.416950000000000     44.620250000000006     36.429718999999992
H      39.027950000000004     43.214449999999999     35.153419000000000
H      31.936249999999998     39.850850000000001     34.894118999999989
H      33.233849999999997     41.039750000000005     34.831818999999996
H      44.667549999999999     42.576250000000002     39.776318999999987
H      44.336649999999992     40.764050000000005     41.168181000000004
H      40.442750000000004     36.917349999999999     41.084941200000003
H      37.904050000000005     41.901649999999997     36.239418999999998
H      35.754150000000003     41.152549999999998     35.688418999999996
H      32.001249999999999     33.811949999999996     36.233418999999998
H      31.332450000000001     35.990750000000006     36.188618999999989
H      31.772850000000002     38.000050000000002     36.395218999999997
H      37.601849999999999     33.779150000000001     38.527718999999991
H      33.747350000000004     32.254350000000002     36.947018999999997
H      42.706450000000004     44.886050000000004     38.226318999999990
H      41.160750000000000     45.059149999999995     37.031818999999999
H      39.076750000000004     34.599950000000000     38.181418999999991
H      38.302050000000001     34.587450000000004     39.818818999999991
H      36.988150000000005     30.940850000000005     36.843618999999990
H      36.136550000000000     31.154450000000004     38.543918999999988
H      37.575250000000004     31.681950000000001     37.900418999999999
H      39.667650000000002     44.730049999999991     35.245618999999991
H      39.987249999999996     35.215750000000000     39.702218999999999
H      40.466849999999994     38.679650000000002     36.518618999999987
H      41.823949999999996     37.600849999999994     37.651719000000000
H      41.886149999999994     39.405850000000001     36.808418999999986
H      32.522250000000000     38.864850000000004     37.661518999999998
N      42.139049999999997     38.981450000000002     40.794118999999995
