6

C      38.121699999999997     38.185114999999996     37.195899999999995
C      37.691900000000004     37.806635000000000     38.369999999999997
H      38.992300000000000     38.935005000000004     37.033899999999996
H      37.866900000000001     37.323705000000004     36.446899999999999
H      37.007700000000000     37.064994999999996     38.413800000000002
H      37.805000000000007     38.058374999999998     39.553100000000001
