12

C      38.482299999999995     38.016300000000001     38.171699999999994
C      38.162300000000002     39.250599999999991     37.751099999999994
C      38.814300000000003     37.694699999999997     39.268799999999992
C      37.827400000000011     36.899900000000002     37.378000000000000
C      36.701899999999995     37.268799999999999     36.680299999999995
H      37.633499999999998     39.790800000000004     36.837099999999992
H      39.730499999999992     36.984600000000000     39.408599999999986
H      38.437100000000001     40.046099999999996     38.636299999999984
H      38.680500000000009     38.145099999999999     40.244000000000000
H      36.527299999999997     36.617400000000004     35.756000000000000
H      38.316000000000003     35.953900000000004     37.083999999999982
H      36.269500000000008     38.114599999999996     36.914299999999997
