5

C      38.096099999999993     38.057599999999994     38.053649999999998
H      38.882700000000000     37.444099999999999     37.314150000000005
H      38.748900000000006     38.939200000000000     38.678850000000004
H      37.117300000000000     38.512999999999998     38.109549999999999
H      38.278099999999995     37.060800000000000     38.685849999999995
