6

C      37.663450000000005     37.515199999999993     38.107399999999998
C      38.732250000000008     38.480199999999996     37.707900000000002
H      37.390950000000011     36.521400000000000     37.645299999999999
H      37.191150000000000     37.728500000000011     38.900299999999994
H      38.808850000000000     39.240600000000001     38.428999999999995
H      38.510350000000010     39.478600000000000     37.099700000000006
