5

C      37.771299999999989     38.182800000000000     38.011944999999990
H      37.413899999999998     37.225099999999998     38.060634999999991
H      37.207400000000000     38.774900000000002     38.779854999999998
H      38.792600000000000     38.050200000000004     38.026495000000004
H      37.644999999999996     38.714399999999998     37.220145000000002
