5

C      38.125749999999996     37.745649999999998     38.080099999999995
H      37.216049999999996     37.306950000000001     37.497999999999998
H      38.783950000000004     37.963849999999994     37.017800000000001
H      37.868349999999992     38.853449999999995     38.478600000000000
H      38.617450000000005     37.146550000000005     38.982199999999999
