49

C      38.167819999999992     39.467049999999993     37.098849999999999
C      37.511970000000005     38.260249999999999     37.621150000000007
C      33.635590000000008     40.574449999999992     35.876150000000010
C      37.467910000000003     40.369949999999996     36.274950000000011
C      36.098630000000000     38.161249999999995     37.504750000000008
C      34.785640000000001     41.203550000000000     36.026350000000008
C      33.800620000000009     39.296349999999997     36.400450000000006
C      35.975260000000006     40.346149999999987     36.211950000000009
C      35.261220000000009     39.113349999999997     36.562950000000001
C      39.502820000000000     39.771649999999994     37.642850000000010
C      40.104119999999995     38.756450000000001     38.368950000000005
C      39.530919999999995     37.386849999999995     38.420250000000010
C      38.161349999999999     37.115549999999992     38.170549999999999
C      40.281320000000008     40.859449999999995     37.105250000000005
C      41.637120000000010     40.534250000000000     37.241850000000007
C      42.312419999999989     39.351450000000000     37.663050000000005
C      41.584320000000005     38.759450000000001     38.693350000000009
C      39.509120000000010     42.027949999999997     36.501350000000009
C      38.051439999999999     41.639449999999989     35.849950000000007
C      40.253019999999992     36.523849999999996     39.433450000000008
C      39.439220000000006     35.567349999999998     40.162550000000010
C      38.455359999999999     35.065950000000001     39.147250000000007
C      37.437339999999992     35.936650000000000     38.606350000000006
C      42.358420000000010     37.859349999999999     39.663050000000005
C      41.477020000000010     36.877449999999989     40.000350000000005
C      35.114820000000009     37.463949999999997     38.105750000000000
C      36.135060000000010     35.312049999999999     38.757150000000003
C      35.937800000000010     34.206649999999996     37.531050000000008
C      36.150300000000001     34.491849999999999     36.317750000000011
C      35.229010000000002     36.472250000000003     39.251650000000005
H      40.142820000000000     42.750349999999997     35.917850000000008
H      32.613779999999991     41.178849999999990     35.540550000000010
H      34.898269999999997     42.314449999999987     36.039650000000009
H      32.971710000000002     38.621549999999999     36.464450000000006
H      42.319220000000001     41.134950000000003     36.586449999999999
H      43.386220000000009     39.301450000000003     37.501750000000008
H      39.274519999999995     42.988550000000004     37.292350000000006
H      39.794719999999998     35.030849999999994     41.095950000000002
H      38.425130000000010     33.978250000000003     38.887350000000005
H      43.328519999999997     38.228749999999998     40.058850000000007
H      41.682020000000009     36.268349999999998     40.983050000000006
H      34.174819999999997     37.596649999999997     37.731549999999999
H      36.081200000000010     34.783349999999999     39.721750000000007
H      36.284930000000003     35.424149999999997     35.798050000000011
H      35.866529999999997     33.011449999999996     37.762950000000011
H      35.426870000000008     37.260549999999988     40.080150000000003
H      34.273510000000002     35.997050000000002     39.606550000000006
H      36.371570000000006     33.823650000000001     35.459550000000007
O      37.692800000000005     42.228249999999996     34.904049999999998
