6

C      38.070799999999991     38.738649999999993     38.099660000000000
C      37.481799999999993     37.485450000000000     37.425225000000012
H      37.286799999999999     39.418450000000000     37.707141000000007
H      38.959100000000007     39.116849999999999     37.294125000000008
H      37.802400000000006     38.655850000000001     39.156475000000000
O      37.040899999999993     36.581550000000000     36.843525000000000
