6

C      38.251724999999993     38.291899999999991     38.477649999999997
C      38.117415000000001     37.750300000000003     37.208550000000002
H      37.095325000000003     38.547799999999995     39.018850000000000
H      36.900064999999998     37.328899999999997     37.250950000000003
H      39.099935000000002     38.794800000000002     38.942650000000000
H      38.923304999999992     37.205199999999998     36.981150000000000
