55

C      37.546549999999996     36.865449999999996     39.887049999999995
C      37.833150000000003     38.442250000000001     39.926349999999999
C      42.063949999999998     40.047049999999999     36.156750000000002
C      38.274250000000002     36.077150000000003     38.877449999999996
C      42.309649999999991     38.730149999999995     35.956449999999997
C      38.331750000000007     39.035049999999998     38.739249999999998
C      41.000949999999996     40.433049999999994     37.007649999999998
C      39.571550000000002     36.226250000000007     36.822550000000000
C      40.896650000000001     36.647450000000006     36.455350000000003
C      39.252649999999996     36.860650000000007     38.131050000000002
C      41.214950000000002     38.123750000000001     36.645350000000001
C      39.267750000000007     38.325450000000004     37.934750000000001
C      40.240150000000007     39.195650000000001     37.086449999999999
C      37.049050000000001     36.244749999999996     40.967050000000000
C      36.119950000000003     37.138949999999994     41.727449999999990
C      36.220050000000001     38.480050000000006     41.668849999999999
C      37.137650000000001     39.223050000000001     40.780349999999991
C      38.716149999999999     35.144149999999996     36.095950000000002
C      39.251449999999998     34.822950000000006     34.860849999999999
C      40.527750000000005     35.323549999999997     34.350949999999997
C      41.305850000000007     36.260149999999996     35.031249999999993
C      37.628550000000004     34.678449999999998     36.955649999999999
C      37.914149999999999     34.669049999999999     38.438650000000003
C      34.792549999999999     36.675849999999997     42.372949999999996
C      33.739950000000000     37.004850000000005     41.353749999999998
C      36.498350000000002     35.679349999999999     36.627249999999997
C      40.676850000000002     41.730450000000005     37.703350000000000
C      42.632649999999998     36.741950000000003     34.197249999999990
C      42.356650000000009     37.933050000000009     33.373350000000002
H      42.938050000000011     40.771950000000004     36.040349999999997
H      43.350749999999998     38.414850000000001     35.866149999999998
H      38.120750000000001     39.972849999999994     38.592950000000002
H      36.742950000000008     35.172150000000002     40.975449999999995
H      35.406250000000007     39.226250000000007     41.983849999999990
H      37.413349999999994     40.386949999999999     40.915949999999995
H      38.832850000000001     33.965249999999997     34.260449999999999
H      40.758350000000000     34.630549999999999     33.591749999999998
H      37.342850000000006     33.631749999999997     36.755549999999999
H      38.827850000000005     34.205050000000000     38.767249999999990
H      37.202850000000005     33.854450000000000     38.760050000000000
H      32.649250000000002     37.282849999999996     41.701250000000002
H      33.437350000000002     36.189050000000009     40.676949999999998
H      35.656450000000007     35.031950000000009     37.062350000000002
H      36.347950000000004     35.972949999999997     35.606850000000001
H      36.615150000000007     36.635550000000009     37.068950000000001
H      41.437449999999998     42.091349999999991     38.482549999999989
H      40.513149999999996     42.368250000000003     36.728149999999999
H      43.036050000000010     35.892249999999990     33.586149999999996
H      43.269950000000001     37.180049999999994     34.837150000000001
H      34.216450000000002     37.768450000000001     40.701049999999995
H      42.454349999999991     39.157350000000008     33.554049999999997
H      42.960050000000003     37.988349999999997     32.477049999999998
H      41.243450000000003     38.299749999999989     33.368150000000000
H      39.698350000000005     41.553950000000000     38.546949999999995
O      34.814250000000001     36.581750000000000     43.522950000000002
