5

C      38.039089999999987     38.010800000000003     37.955599999999997
H      37.426730000000006     37.749000000000009     37.166100000000000
H      38.565709999999996     38.804800000000000     37.509900000000002
H      38.573269999999994     37.195200000000000     38.424100000000003
H      37.769080000000002     38.632800000000003     38.833900000000000
