11

C      37.021099999999997     38.178349999999995     36.431899999999992
C      38.416100000000000     37.702550000000002     39.085199999999993
C      39.022199999999998     36.486550000000008     39.638799999999996
C      37.766599999999997     38.757850000000005     38.665399999999998
C      37.116799999999998     39.013550000000009     37.361899999999991
H      38.186899999999994     35.873249999999999     39.570599999999999
H      39.677199999999999     36.855650000000011     40.415199999999999
H      37.883700000000005     37.548349999999999     36.410099999999993
H      36.828800000000001     40.126750000000001     36.999799999999993
H      37.643600000000006     39.382149999999996     39.601799999999990
H      36.322800000000001     38.004650000000012     35.584800000000001
