8

C      38.405959999999993     38.674499999999988     37.912999999999990
C      37.451369999999997     37.504000000000005     38.381799999999998
H      38.502170000000000     38.518699999999995     36.751800000000003
H      39.442959999999999     38.507099999999994     38.321600000000004
H      37.041550000000001     37.332599999999999     39.248199999999997
H      37.916350000000001     36.568200000000004     38.050899999999999
H      37.619560000000000     39.431799999999996     38.456399999999995
H      36.557040000000001     37.685900000000004     37.748699999999999
