5

C      37.994599999999998     38.011399999999995     38.039404999999988
H      37.088700000000003     37.521000000000001     37.584744999999998
H      38.911299999999997     37.400900000000007     37.859594999999999
H      38.610200000000006     38.599099999999993     37.200315000000003
H      37.315300000000008     38.501599999999996     38.799684999999997
