5

C      37.686799999999991     38.224104999999994     37.994699999999995
H      38.718599999999995     38.296154999999992     37.702900000000000
H      37.281400000000005     38.696924999999993     37.162400000000005
H      37.665999999999997     37.123255000000000     38.560200000000002
H      37.664999999999992     38.876745000000000     38.837599999999995
