40

C      39.377549999999999     35.585699999999996     37.917749999999998
C      40.227750000000000     36.642499999999998     37.630449999999996
C      35.501650000000005     38.835099999999997     38.460350000000005
C      36.608450000000005     40.009999999999991     38.480449999999990
C      37.903950000000002     35.881799999999998     38.127549999999999
C      39.550650000000005     37.914500000000004     37.369749999999996
C      35.991450000000007     37.546999999999990     38.310450000000003
C      37.822250000000004     39.540599999999998     38.035550000000001
C      37.359250000000010     37.140900000000002     38.191550000000007
C      38.304450000000003     38.254400000000004     37.894250000000000
C      39.963250000000009     34.400999999999996     38.214650000000006
C      41.412850000000006     34.123500000000000     38.017949999999999
C      42.446449999999999     35.366599999999998     37.514449999999997
C      41.647750000000009     36.625599999999999     37.471950000000007
C      34.226450000000007     38.948900000000002     38.686050000000009
C      33.747349999999997     40.319099999999992     38.846750000000000
C      34.709150000000001     41.329699999999995     39.120149999999995
C      36.066950000000006     41.095900000000000     39.214649999999992
C      38.651449999999997     33.774299999999997     38.766149999999996
C      40.417850000000008     38.929299999999998     37.131749999999997
C      41.814350000000005     38.914400000000001     36.909250000000000
C      42.438850000000009     37.656799999999997     36.957650000000001
C      37.487550000000006     34.755799999999994     38.939349999999990
H      35.199650000000005     36.777699999999996     38.209950000000006
H      38.516150000000003     40.489999999999995     37.861050000000006
H      41.961850000000005     33.697900000000004     38.885349999999988
H      43.012050000000002     35.256299999999996     38.521249999999995
H      32.651850000000003     40.548200000000001     39.078150000000008
H      36.674150000000004     41.848099999999995     39.446250000000006
H      38.530050000000010     32.606899999999996     38.629050000000007
H      40.226450000000000     40.048099999999998     37.080650000000006
H      42.380350000000007     39.873699999999999     36.791349999999994
H      43.286750000000005     35.263199999999998     36.674850000000006
H      43.399650000000001     37.542199999999994     36.379350000000002
H      32.600349999999999     38.287399999999998     38.260149999999996
H      34.760250000000006     43.393100000000004     39.620649999999998
H      36.508049999999997     34.588799999999999     39.224550000000008
H      41.474150000000002     33.320099999999996     37.384649999999993
O      33.409950000000002     37.886899999999997     38.655249999999995
O      34.142050000000005     42.500999999999998     39.545850000000002
