22

C      36.363599999999991     38.280304999999998     36.406299999999995
C      38.514899999999997     35.070235000000011     38.703299999999999
C      38.355800000000002     37.517687000000002     38.197800000000001
C      37.350899999999996     38.381125000000004     37.607099999999996
C      37.801600000000008     39.726124999999996     37.716299999999997
C      38.748999999999995     39.967075000000008     38.820200000000000
C      39.192499999999995     39.018185000000003     39.679399999999994
C      39.277299999999997     37.653571000000007     39.275199999999998
C      37.963700000000003     36.165735000000005     37.584899999999990
H      35.703000000000003     37.638981000000008     37.089799999999990
H      39.639299999999992     34.970535000000012     38.574999999999996
H      37.808800000000005     34.424734999999998     38.151699999999991
H      38.348100000000002     35.578635000000006     39.673499999999997
H      36.893699999999995     37.499809000000006     35.821300000000001
H      36.028800000000004     39.356954999999999     35.857599999999991
H      37.629999999999995     40.423735000000008     36.774400000000000
H      40.296999999999997     39.284715000000006     40.105499999999992
H      39.783000000000001     36.999525999999996     40.178699999999999
H      39.757999999999996     41.575265000000002     39.570399999999999
H      36.856799999999993     36.182334999999995     37.517599999999995
H      38.474299999999999     36.104135000000014     36.577199999999998
O      39.048800000000000     41.291644999999995     38.916399999999996
