9

C      38.129394999999995     38.124799999999993     37.408049999999989
C      38.315145000000001     38.348199999999991     38.790450000000000
H      38.873494999999998     37.784800000000004     36.732549999999996
H      37.842574999999989     39.039400000000001     36.907649999999997
H      38.051405000000003     37.266500000000001     39.267450000000004
H      37.713745000000003     38.997999999999998     39.187549999999987
H      39.201115000000001     38.926400000000001     38.904649999999997
H      36.798884999999999     37.123999999999995     37.954349999999991
O      37.298994999999998     36.960599999999999     37.308550000000004
