6

C      37.441849999999995     37.675549999999987     38.131950000000003
C      38.629249999999999     37.806849999999997     37.534750000000003
H      36.785350000000001     38.310149999999993     39.035950000000000
H      36.823449999999994     36.889650000000003     37.618850000000009
H      39.059949999999994     37.012850000000000     36.964050000000000
H      39.214649999999999     39.110349999999997     37.775850000000005
