6

C      37.811474999999994     38.550600000000003     37.615799999999993
C      38.253974999999997     37.738000000000000     38.608300000000000
H      36.781824999999998     38.767300000000006     37.859499999999997
H      37.957075000000003     38.298200000000008     36.712299999999999
H      37.328524999999999     37.548600000000008     39.287700000000001
H      39.218175000000002     37.232699999999994     39.132000000000005
