52

C      43.215499999999992     41.262799999999999     35.242150000000002
C      38.943600000000004     39.627799999999993     38.385750000000002
C      39.284900000000000     38.433800000000005     37.575449999999996
C      34.817799999999998     37.019400000000005     39.754650000000005
C      35.419899999999998     35.804800000000000     39.237250000000010
C      37.613000000000000     39.686999999999998     38.911250000000010
C      38.449700000000000     37.264899999999997     37.608450000000005
C      35.612099999999998     38.209599999999995     39.585749999999997
C      36.687600000000003     35.754400000000004     38.620550000000001
C      36.891900000000000     38.320499999999996     38.892550000000000
C      37.202100000000002     37.052499999999995     38.512650000000001
C      39.648800000000001     40.855300000000000     37.895750000000000
C      40.794099999999993     40.846999999999994     37.076150000000005
C      40.515999999999998     38.464100000000002     36.856650000000009
C      33.564500000000002     37.200900000000004     40.571550000000009
C      33.073000000000000     36.046700000000001     41.074350000000010
C      33.524900000000002     34.729699999999994     40.449050000000000
C      34.532600000000002     34.615799999999993     39.575350000000000
C      38.888800000000003     42.009799999999998     38.451950000000011
C      39.148800000000001     43.235200000000006     37.770250000000004
C      40.305399999999999     43.227800000000002     37.063150000000000
C      41.102600000000002     42.150700000000001     36.694650000000010
C      37.014499999999998     40.902099999999990     39.268350000000012
C      37.441799999999994     42.097799999999992     38.818050000000014
C      33.096499999999999     33.428799999999995     41.043250000000008
C      33.637100000000004     32.157399999999996     41.035050000000005
C      36.627099999999999     43.419299999999993     38.805749999999996
C      42.368000000000002     42.224599999999995     35.782950000000007
C      38.774100000000004     36.159000000000006     36.694949999999999
H      41.638700000000000     44.647300000000001     36.875050000000009
H      42.427399999999999     43.301599999999993     35.559649999999998
H      39.837900000000005     35.029200000000003     35.422550000000008
H      35.075400000000002     39.115700000000004     40.085450000000009
H      37.101600000000005     34.790599999999998     38.514550000000007
H      41.013100000000001     37.637000000000000     36.133749999999999
H      33.434699999999999     38.281099999999995     40.930250000000008
H      32.327500000000001     36.199999999999989     41.628350000000012
H      35.042400000000001     33.616200000000006     39.306650000000005
H      38.578799999999994     44.167100000000005     37.796450000000007
H      35.860500000000002     40.873000000000005     39.577950000000001
H      34.388600000000004     31.869499999999995     40.209550000000000
H      33.555900000000001     31.352700000000002     41.738849999999999
H      32.194299999999998     33.744900000000001     41.510750000000009
H      37.259399999999999     44.212699999999998     39.204350000000005
H      35.735399999999998     43.032499999999999     39.384350000000012
H      36.323099999999997     43.729299999999995     37.847150000000006
H      43.805700000000002     41.442700000000002     34.261150000000001
H      43.213700000000003     40.235799999999998     35.560350000000007
H      38.263500000000001     35.184399999999997     36.589350000000010
N      41.175100000000000     39.608699999999999     36.618850000000009
O      40.819400000000002     44.557299999999998     37.009949999999996
O      39.817999999999998     35.782799999999995     35.919550000000008
