46

C      37.313929999999985     37.040049999999994     38.667884999999984
C      38.311329999999984     36.441250000000004     39.614184999999992
C      40.326937000000001     40.090750000000000     36.685784999999996
C      41.252240000000008     39.616650000000000     37.858984999999990
C      37.500229999999988     37.993150000000000     37.559384999999992
C      39.737829999999995     36.598649999999992     39.505584999999982
C      39.040230000000001     39.492649999999998     36.691884999999999
C      40.993672000000004     38.524650000000001     38.745784999999984
C      38.814529999999998     38.533250000000002     37.694985000000003
C      39.892329999999994     37.864650000000005     38.710984999999994
C      35.969929999999998     36.496349999999993     38.703684999999993
C      35.647330000000004     35.401949999999999     39.609484999999978
C      36.383829999999996     35.380049999999990     40.847567900000001
C      37.726729999999996     35.765949999999989     40.792784999999981
C      40.873781999999999     41.050550000000001     35.819884999999999
C      41.961369999999995     41.758849999999995     36.028885000000002
C      42.930910000000004     41.183449999999993     36.907184999999998
C      42.482529999999997     40.187949999999994     37.827584999999999
C      35.142729999999993     36.795049999999996     37.585785000000001
C      33.701029999999996     36.241049999999994     37.482284999999990
C      33.373929999999994     35.754249999999999     38.712684999999993
C      34.204729999999991     35.126150000000003     39.757784999999998
C      35.273930000000000     37.642850000000003     36.502184999999997
C      36.598329999999997     38.229549999999989     36.507184999999993
C      36.851929999999996     39.173049999999989     35.364485000000002
C      35.700029999999991     39.731649999999988     34.779384999999976
C      38.271329999999999     39.791249999999991     35.299284999999998
C      33.508729999999993     34.207049999999995     40.819084999999987
H      35.907429999999998     40.742049999999999     34.160785000000004
H      40.387600000000006     35.804449999999996     39.755285000000001
H      41.734930000000013     38.177749999999989     39.589984999999999
H      35.848830000000000     35.120950000000001     41.796929000000006
H      38.651829999999997     35.519050000000000     41.543430999999998
H      40.080130000000004     41.468150000000001     35.264484999999993
H      42.074890000000003     42.712550000000000     35.590985000000003
H      43.720370000000010     41.941349999999993     37.085884999999990
H      43.158290000000001     39.530549999999991     38.478984999999980
H      32.940930000000002     36.650150000000004     36.906084999999990
H      32.279629999999990     35.639249999999990     39.094084999999978
H      34.399030000000003     37.927849999999992     35.897284999999997
H      34.536729999999999     39.534449999999993     35.105985000000004
H      38.743429999999989     39.343849999999996     34.344384999999988
H      38.336729999999996     40.833449999999999     34.727184999999992
H      33.797530000000002     34.592449999999999     41.839214999999996
H      33.804829999999995     33.287450000000000     40.788384999999977
H      32.487329999999993     34.464749999999995     40.923431299999990
