38

C      34.813099999999991     37.750349999999990     38.710449999999987
C      36.284599999999998     35.292949999999998     37.057549999999992
C      37.445000000000000     34.331649999999996     36.625050000000002
C      41.039299999999997     38.062349999999995     37.604050000000001
C      36.631200000000000     36.248750000000001     38.031649999999999
C      38.469899999999988     35.341749999999998     36.346049999999991
C      38.651299999999992     38.057949999999991     38.845949999999995
C      40.253599999999992     36.897149999999989     37.228149999999992
C      37.909199999999991     37.011949999999999     38.102449999999990
C      38.868699999999997     36.413849999999996     37.173249999999996
C      35.516499999999994     36.353249999999989     39.085549999999998
C      38.527899999999995     40.598950000000002     38.258449999999996
C      38.894100000000002     39.178849999999997     37.987650000000002
C      38.466799999999999     41.493449999999996     37.147750000000002
C      40.067399999999999     39.096149999999994     37.258049999999997
C      38.681699999999999     37.891249999999999     40.087349999999994
C      37.941499999999998     41.237349999999999     39.516849999999991
H      39.192499999999988     35.435249999999996     35.479149999999990
H      34.581399999999995     38.475650000000002     39.516449999999992
H      33.869199999999999     37.436650000000000     38.211550000000003
H      35.738599999999998     38.319049999999990     38.095749999999988
H      42.130800000000001     38.130249999999997     37.040049999999994
H      37.451299999999996     33.663049999999998     37.525849999999991
H      41.000399999999992     36.303149999999988     36.815550000000002
H      35.808099999999996     35.769949999999994     40.043349999999990
H      34.780299999999997     35.654649999999997     38.842749999999988
H      36.673099999999998     33.816849999999995     34.924250000000001
H      34.311000000000000     35.240449999999996     36.838250000000002
H      37.913499999999992     42.485849999999999     36.995350000000002
H      40.695199999999993     39.928550000000001     36.896050000000002
H      38.383899999999997     41.284049999999993     36.184649999999991
H      38.350399999999993     36.825350000000000     40.404149999999994
H      38.479999999999997     38.533049999999996     41.075749999999999
H      38.020800000000001     42.273849999999996     39.500249999999987
H      38.813299999999998     41.241849999999992     40.165349999999982
H      37.060499999999998     40.511649999999996     39.671149999999990
O      37.472799999999992     33.514150000000001     35.326549999999997
O      35.237000000000002     35.296749999999989     36.212049999999991
