37

C      38.755749999999992     36.474099999999993     39.746414999999992
C      39.991849999999985     36.152600000000000     39.034765000000000
C      39.728649999999995     40.114499999999992     34.541224999999997
C      38.505449999999996     40.495299999999993     35.133485000000000
C      40.207649999999987     36.921500000000002     37.877474999999997
C      40.090550000000000     38.856099999999998     35.131324999999997
C      36.857650000000000     38.608899999999991     37.511415000000000
C      37.210450000000002     39.997900000000001     37.215494999999997
C      37.837449999999997     37.724399999999989     38.039294999999996
C      38.258049999999997     39.838099999999997     36.292065000000001
C      39.073749999999990     37.759999999999998     37.449464999999996
C      39.110549999999996     38.679600000000001     36.251635000000000
C      38.783949999999997     35.675499999999992     41.031675000000000
C      39.772149999999989     34.812799999999989     41.292274999999997
C      41.029649999999997     35.328600000000002     39.541224999999997
C      35.411749999999998     38.484400000000001     37.676755000000000
C      34.630249999999997     39.600999999999999     37.933984999999993
C      34.975649999999995     41.066200000000002     37.694344999999998
C      36.218849999999996     41.157499999999992     37.195625000000000
C      37.417449999999995     41.366399999999992     34.483154999999996
H      40.258850000000002     40.786899999999996     33.832464999999999
H      40.626249999999999     38.084099999999999     34.633434999999999
H      37.832149999999999     35.924099999999989     41.566474999999997
H      41.508949999999999     35.086199999999998     38.601774999999989
H      35.033349999999999     37.503999999999998     37.612954999999992
H      33.623550000000002     38.994399999999992     38.237085000000000
H      34.534349999999996     41.985900000000001     37.294894999999997
H      36.450349999999993     41.904299999999999     36.579574999999998
H      42.376449999999998     37.040900000000001     37.635154999999997
H      38.510950000000001     33.740000000000002     42.516475000000000
H      37.909950000000002     42.259999999999998     34.923474999999996
H      36.154549999999993     40.982699999999994     34.416784999999990
H      37.719749999999998     41.489899999999999     33.483525000000000
N      37.756650000000000     37.161899999999989     39.271774999999998
N      40.897549999999995     34.677199999999999     40.652425000000001
O      41.431049999999992     37.008899999999997     37.243425000000002
O      39.410350000000001     34.103999999999999     42.450774999999993
