5

C      38.380749999999992     38.364899999999992     38.368184999999997
C      38.264749999999999     37.651799999999994     37.519694999999999
H      38.434549999999994     38.693699999999993     39.360874999999993
H      37.209049999999998     37.345700000000008     37.231304999999992
H      38.790950000000002     37.306300000000007     36.639125000000007
