8

C      36.993984999999995     38.233449999999991     37.624199999999995
C      38.361155000000004     38.116950000000003     38.268200000000000
C      39.132485000000003     37.320250000000001     37.494299999999996
H      36.843595000000001     37.586349999999996     36.732500000000002
H      38.268795000000004     38.050750000000008     39.289200000000001
H      36.236714999999997     38.039150000000006     38.292000000000002
H      37.237315000000002     39.280150000000006     37.089799999999997
O      39.763285000000003     36.719849999999994     36.710799999999999
