31

C      36.174499999999995     36.757949999999987     37.650849999999991
C      36.476700000000001     37.195650000000001     38.918949999999995
C      39.814300000000003     39.047950000000000     35.901550000000000
C      40.302699999999994     39.494650000000000     37.184950000000001
C      37.861699999999992     37.701049999999995     39.072649999999996
C      38.894699999999993     38.092250000000000     35.637349999999998
C      39.671799999999998     39.004449999999999     38.265950000000004
C      38.023000000000003     37.586849999999998     36.648650000000004
C      38.349499999999992     38.380150000000000     37.850750000000005
C      34.722700000000003     36.276049999999998     37.498150000000010
C      33.657200000000003     35.836549999999988     38.341849999999994
C      34.175699999999999     36.530449999999988     39.592849999999999
C      35.524000000000001     36.912149999999997     39.887349999999998
C      35.466700000000003     37.303549999999994     41.357349999999997
C      39.929299999999991     39.294749999999993     39.779249999999990
C      41.738399999999992     40.131549999999997     36.896550000000005
H      41.992100000000001     39.864349999999995     35.729050000000001
H      40.225399999999993     39.513949999999987     34.884450000000001
H      38.329900000000002     37.824149999999996     40.077150000000003
H      34.916199999999996     35.939850000000000     36.470750000000010
H      33.499699999999997     34.947350000000000     37.615850000000009
H      33.463600000000000     36.181749999999994     40.500749999999996
H      35.537500000000001     38.302650000000000     41.687750000000008
H      39.095300000000002     39.586449999999992     40.523449999999997
H      38.638900000000000     37.232649999999992     33.868449999999996
H      41.908899999999996     41.052650000000000     37.551349999999999
H      42.536400000000000     39.341449999999995     37.004750000000001
N      36.895699999999998     36.926549999999992     36.512450000000001
O      35.323100000000004     36.416149999999995     42.131550000000004
O      41.064799999999998     39.559649999999991     40.107150000000004
O      38.212599999999995     38.085850000000001     34.419950000000000
