6

C      37.746200000000002     38.606699999999989     38.270349999999993
C      38.164100000000005     37.429099999999991     37.648750000000007
H      37.991500000000002     36.987899999999996     36.562150000000003
H      37.767400000000009     39.468000000000004     37.527749999999997
H      38.061400000000006     38.548500000000004     39.437849999999997
H      38.253799999999998     36.531999999999996     38.311350000000004
