9

C      38.838359999999994     37.839199999999991     36.769114999999999
C      38.557815000000005     38.437199999999997     38.051094999999997
C      37.339995000000009     38.077999999999996     38.896875000000009
H      38.129494999999999     36.949400000000004     36.515015000000005
H      39.466485000000006     39.050599999999996     38.338904999999997
H      39.602405000000005     38.150500000000001     35.994325000000003
H      37.412695000000014     38.316800000000001     40.005674999999997
H      36.397594999999995     38.481199999999994     38.595675000000007
H      37.028894999999991     37.018599999999992     38.654575000000001
