14

C      36.306699999999992     37.083849999999998     39.362049999999996
C      37.164800000000000     37.775950000000009     40.200649999999996
C      38.462699999999998     38.112050000000011     39.513849999999998
C      38.385300000000001     38.526550000000007     38.150950000000002
C      37.652200000000001     37.682550000000006     37.394650000000006
C      36.494699999999995     37.071250000000006     37.932250000000003
C      37.724499999999992     37.315950000000001     35.918750000000003
H      35.359299999999998     37.043150000000004     39.672649999999990
H      37.336999999999996     37.579250000000002     41.173049999999996
H      39.308600000000006     38.112749999999998     40.220049999999993
H      35.667999999999999     36.758850000000002     37.288450000000005
H      40.640700000000002     37.996050000000011     37.249650000000003
O      37.941099999999999     37.107250000000008     34.826950000000004
S      40.147499999999994     39.241149999999998     37.481250000000003
