53

C      37.518649999999994     36.582715000000000     36.470249999999993
C      36.546150000000004     37.264415000000007     35.636649999999989
C      32.179450000000003     40.244515000000007     38.606449999999995
C      37.059149999999995     36.258874999999996     37.838849999999994
C      32.357050000000001     39.402115000000002     39.721750000000000
C      35.293150000000004     37.682915000000001     36.159049999999993
C      32.956750000000000     39.635915000000004     37.679050000000004
C      35.477250000000005     36.852615000000007     39.719549999999998
C      34.023850000000003     37.297815000000000     40.211649999999992
C      35.742550000000001     36.847245000000001     38.302849999999992
C      33.440250000000006     38.429614999999998     39.563850000000002
C      34.793050000000001     37.594315000000002     37.558449999999993
C      33.664750000000005     38.380314999999996     38.122249999999994
C      38.852050000000006     36.198384999999995     36.117750000000001
C      39.345349999999996     36.462105000000001     34.809849999999997
C      38.315349999999995     36.833634999999994     33.909149999999997
C      37.061949999999996     37.359815000000005     34.288049999999998
C      36.250150000000005     36.242955000000009     40.687550000000002
C      35.528750000000002     35.834805000000003     41.983350000000002
C      34.200749999999999     35.966705000000005     42.095749999999995
C      33.332850000000001     36.782435000000007     41.251549999999995
C      37.525150000000004     35.712245000000003     40.342250000000007
C      37.862450000000003     35.703755000000001     38.865349999999992
C      39.813549999999992     35.729635000000002     37.167749999999998
C      39.290550000000003     35.324735000000004     38.421549999999996
C      41.262050000000002     35.714835000000008     36.669349999999994
C      42.227350000000001     36.324555000000004     37.586749999999995
C      43.585449999999994     35.682565000000004     37.037850000000006
C      32.915750000000003     40.281315000000006     36.255049999999997
C      32.166150000000002     37.502215000000007     41.927049999999994
H      33.832049999999995     40.143715000000000     35.578450000000004
H      31.580850000000005     41.222215000000006     38.562449999999998
H      31.687850000000005     39.356615000000005     40.590050000000005
H      34.202750000000002     37.969115000000002     35.839449999999999
H      40.029350000000001     35.967245000000005     34.193849999999998
H      38.392249999999997     37.134715000000007     32.957650000000001
H      36.101649999999999     35.269365000000001     42.713049999999996
H      33.842550000000003     35.677335000000006     43.042349999999999
H      38.418149999999997     35.698845000000006     41.005750000000006
H      40.174049999999994     35.021085000000006     38.924850000000006
H      42.202449999999999     35.980935000000002     38.678650000000005
H      42.318949999999994     37.460615000000004     37.538849999999996
H      35.369350000000004     38.484715000000008     33.412649999999999
H      43.957749999999997     36.159315000000007     36.192049999999995
H      44.575849999999996     36.091505000000005     37.518850000000000
H      43.403849999999998     34.583685000000003     36.775250000000000
H      32.892650000000003     41.416314999999997     36.536649999999995
H      32.036350000000006     40.255914999999995     35.699950000000001
H      32.241050000000001     36.715734999999995     42.937749999999994
H      31.424150000000004     36.878155000000007     41.033649999999994
H      32.147250000000000     38.557814999999998     42.085549999999998
O      41.546950000000002     34.759145000000004     36.072849999999988
O      36.054850000000002     37.760215000000002     33.400949999999995
