44

C      39.499999999999993     38.347599999999993     32.390699999999995
C      38.813500000000005     38.672399999999989     37.075099999999999
C      37.588499999999996     39.318799999999996     36.873799999999996
C      38.484999999999999     38.149499999999996     41.770400000000002
C      37.078799999999994     38.424399999999999     41.482800000000005
C      39.723100000000002     38.537499999999994     38.269600000000004
C      36.865600000000001     39.573200000000000     38.197699999999998
C      39.510800000000003     38.340799999999994     40.679699999999997
C      38.926199999999994     38.575399999999995     39.369400000000006
C      37.410200000000003     38.987800000000000     39.342100000000002
C      39.246499999999997     37.951299999999996     35.873999999999995
C      38.499700000000004     38.313099999999999     34.695399999999999
C      37.480000000000004     39.378999999999991     34.505000000000003
C      36.896199999999993     39.840399999999995     35.698699999999995
C      39.106400000000001     37.480199999999996     42.862500000000004
C      38.121299999999998     36.764899999999997     43.544800000000002
C      36.821500000000000     37.024899999999995     43.509599999999992
C      36.354299999999995     38.055899999999994     42.701000000000001
C      40.261699999999998     36.931599999999996     36.001100000000001
C      40.275899999999993     36.009399999999999     34.912100000000002
C      39.426699999999997     36.051399999999994     33.741800000000005
C      38.966899999999995     37.483599999999996     33.549499999999995
C      41.061199999999992     37.886399999999995     38.426200000000001
C      41.159999999999989     37.024699999999996     37.290200000000006
C      35.579799999999999     40.091099999999997     38.038399999999996
C      35.028199999999998     40.584799999999994     36.781700000000001
C      35.535899999999998     40.239599999999996     35.513199999999998
H      40.624600000000001     38.027499999999996     32.691700000000004
H      39.053399999999989     37.923899999999996     31.540799999999997
H      39.174800000000005     39.331399999999995     32.115800000000000
H      40.728700000000003     38.281599999999997     40.928799999999995
H      36.835599999999999     39.404599999999995     33.536199999999994
H      40.084199999999989     36.910100000000000     42.551499999999997
H      38.314999999999998     36.035999999999994     44.459200000000003
H      36.209000000000003     36.578699999999998     44.224599999999995
H      35.507500000000000     38.784699999999987     43.112800000000000
H      40.952299999999994     35.138900000000000     35.163400000000003
H      39.593199999999996     35.446099999999987     32.836800000000004
H      42.073499999999996     36.436699999999995     37.780799999999999
H      41.702999999999996     37.791100000000000     39.383600000000001
H      35.031099999999995     40.229999999999997     38.918300000000002
H      33.926500000000004     40.861100000000000     36.929300000000005
H      34.887799999999999     40.445899999999995     34.726199999999992
N      36.555199999999999     38.820299999999996     40.347000000000001
