49

C      41.140299999999996     40.166150000000002     35.386550000000000
C      41.581500000000005     40.048149999999993     36.926949999999991
C      34.067300000000003     37.955749999999995     40.762850000000000
C      35.224400000000003     37.129149999999996     41.146049999999988
C      39.959499999999998     39.692549999999997     34.884950000000003
C      40.669299999999993     40.035650000000004     37.970249999999993
C      34.040000000000006     38.756950000000003     39.651150000000001
C      36.501600000000003     37.659649999999999     40.678350000000009
C      37.649000000000008     39.257949999999994     35.855350000000001
C      35.448700000000002     38.774450000000002     37.237949999999998
C      38.764100000000006     38.853949999999998     38.655150000000006
C      39.137800000000006     39.322249999999997     36.112949999999998
C      39.514800000000001     39.361949999999993     37.572550000000007
C      35.062399999999997     38.487949999999998     38.624850000000009
C      36.812200000000004     38.752049999999997     36.957350000000005
C      36.388700000000007     38.319649999999996     39.237650000000002
C      37.371700000000004     38.584149999999994     38.314749999999989
C      37.801900000000003     38.150549999999996     41.000949999999989
C      38.955100000000009     38.626149999999996     40.126149999999996
C      40.087400000000009     39.396749999999997     40.513450000000006
C      40.924200000000006     39.931950000000001     39.523150000000001
C      42.226800000000004     40.447649999999996     34.505249999999990
C      43.421200000000006     40.862849999999995     35.118949999999998
C      42.740100000000005     40.684150000000002     37.244149999999991
C      42.995200000000004     40.904550000000000     38.723650000000006
C      42.208700000000000     40.443049999999999     39.877349999999993
C      39.559800000000003     39.654749999999993     33.429950000000005
C      35.557500000000005     36.050349999999995     42.148849999999996
C      32.667200000000001     38.028049999999993     41.399450000000002
C      34.570200000000000     35.192250000000001     42.566549999999992
H      33.323800000000006     39.404749999999993     39.461349999999996
H      36.932100000000005     39.414649999999995     35.011150000000001
H      34.801899999999996     38.596850000000003     36.367850000000004
H      44.399700000000003     41.081750000000000     34.639350000000007
H      43.879600000000003     41.648449999999997     39.069850000000002
H      42.616900000000001     40.641049999999993     40.948250000000002
H      40.531100000000002     39.937950000000001     41.390550000000005
H      39.470199999999998     38.733850000000004     32.783650000000009
H      42.992600000000003     40.414249999999996     32.787450000000007
H      36.664500000000004     36.172449999999998     42.657749999999993
H      34.932800000000000     34.351550000000003     43.216349999999991
H      31.600299999999997     37.739649999999997     40.638249999999999
H      32.857200000000006     37.470150000000004     42.398349999999994
H      31.760400000000004     38.609750000000005     41.692549999999997
H      37.995700000000006     37.747249999999994     41.969249999999988
H      33.585099999999997     35.230149999999995     41.928950000000000
N      43.619199999999999     41.111949999999993     36.445050000000009
O      38.783700000000003     40.534350000000003     33.239849999999990
O      42.347499999999997     40.031949999999995     33.227750000000000
