41

C      34.791299999999993     37.212584999999990     38.634844999999991
C      34.970399999999998     35.672934999999995     38.521844999999999
C      39.783600000000007     37.664715000000001     37.681844999999996
C      39.918499999999995     36.254435000000001     37.703144999999999
C      36.052499999999995     37.854714999999999     38.561745000000002
C      36.198999999999998     34.942785000000001     38.532044999999997
C      38.508599999999987     38.041174999999996     38.208044999999998
C      38.881699999999995     35.537615000000002     38.365845000000000
C      37.366900000000001     37.212194999999994     38.389244999999995
C      37.375000000000000     35.785595000000001     38.399844999999999
C      33.653599999999997     38.041854999999998     38.373044999999998
C      32.655900000000003     37.096154999999996     37.878344999999996
C      32.770499999999998     35.769684999999996     37.505144999999999
C      33.639200000000002     35.154304999999994     38.431944999999992
C      40.883199999999988     38.316614999999999     37.269745000000000
C      42.056799999999996     37.508634999999998     37.164945000000003
C      42.056799999999996     36.102514999999997     36.810344999999998
C      40.874499999999998     35.349665000000002     36.904845000000002
C      36.077200000000005     39.278014999999996     38.791044999999997
C      37.371099999999998     40.028315000000006     38.669345000000000
C      32.846000000000004     39.265515000000008     38.737144999999998
C      43.468799999999987     35.520404999999997     36.823544999999989
C      33.317899999999995     40.016715000000005     39.776744999999998
C      37.533499999999989     41.204515000000001     38.950045000000003
H      35.982899999999987     33.854084999999998     38.541245000000004
H      38.628199999999993     34.407494999999997     38.515545000000003
H      32.108699999999999     35.274484999999999     36.762844999999999
H      33.500100000000003     34.005894999999995     38.533445000000000
H      40.985699999999994     39.478114999999988     37.327945000000000
H      43.094999999999999     37.824584999999999     37.331544999999998
H      40.680599999999998     34.271625000000000     36.741844999999998
H      35.702799999999996     40.084514999999996     37.923845000000000
H      31.800099999999997     39.543814999999995     38.402844999999999
H      44.202500000000001     35.398385000000005     37.593845000000002
H      32.406000000000006     40.726214999999996     40.186444999999992
H      34.300200000000004     39.978115000000003     40.246245000000002
H      36.986900000000006     42.145915000000002     38.547145000000000
H      38.720299999999995     41.583214999999996     39.104044999999999
H      31.797499999999996     37.427075000000002     37.325144999999999
O      43.735900000000001     35.036924999999997     35.753754999999998
O      38.614199999999997     39.328214999999986     38.452444999999990
