6

C      37.417125999999982     38.258949999999999     38.141349999999996
C      38.420856680000007     37.348250000000007     38.222650000000002
H      36.784225999999997     38.589349999999996     37.167650000000009
H      37.388325999999985     39.034049999999993     38.996150000000000
H      38.763718999999995     36.965950000000007     37.003850000000000
H      39.215774000000003     37.325349999999986     38.969350000000006
