38

C      38.772749999999995     38.566899999999997     36.270199999999988
C      38.896749999999997     39.605500000000006     35.424300000000002
C      38.552749999999989     39.768700000000003     39.818999999999996
C      38.684150000000002     41.278600000000004     39.737800000000000
C      39.016349999999989     40.961500000000008     35.914099999999998
C      38.503949999999989     38.844000000000001     38.802799999999998
C      38.674849999999999     41.815899999999999     38.481199999999994
C      38.822850000000003     39.371600000000008     37.503599999999999
C      38.715750000000000     40.840800000000002     37.377400000000002
C      38.662849999999992     37.199200000000005     35.760700000000007
C      37.917249999999996     37.064200000000007     34.548000000000002
C      37.681750000000001     38.191000000000003     33.680300000000003
C      38.472149999999999     39.379999999999995     33.976500000000001
C      38.215550000000000     39.777600000000000     41.273099999999999
C      38.777349999999991     40.512000000000008     42.344600000000007
C      38.768650000000001     41.990600000000008     42.143799999999999
C      39.031549999999989     42.225800000000007     40.753799999999998
C      38.956849999999989     34.848500000000001     35.470199999999998
C      38.703249999999997     35.832099999999997     36.394700000000007
C      38.339649999999999     33.497300000000003     35.864399999999996
C      37.475250000000003     33.455999999999996     37.145000000000003
H      39.413350000000001     32.767099999999999     36.007200000000005
H      38.995950000000001     41.661000000000001     35.209200000000003
H      38.159250000000000     37.814200000000007     39.176099999999998
H      38.240749999999998     42.730400000000003     38.135799999999996
H      37.588149999999999     36.177000000000007     34.079099999999997
H      37.282449999999997     37.770400000000002     32.764499999999998
H      38.777149999999999     40.034399999999998     33.154000000000003
H      37.408549999999998     38.881200000000007     41.207699999999996
H      38.813249999999996     40.029800000000002     43.235499999999995
H      39.440049999999999     43.276199999999996     40.506999999999998
H      39.429650000000002     34.961100000000002     34.510300000000001
H      37.863650000000000     35.620100000000008     36.990499999999997
H      37.363149999999997     32.723800000000004     37.805299999999995
H      36.559950000000001     33.074100000000001     36.661999999999992
H      37.695149999999998     33.080700000000007     35.105899999999998
H      37.452049999999993     34.415300000000002     37.397099999999995
O      38.932549999999999     42.778900000000000     43.155999999999992
