37

C      38.038649999999990     42.432549999999992     38.383129999999987
C      37.700450000000004     37.210850000000008     37.964230000000001
C      38.815650000000005     37.864850000000004     38.646129999999999
C      35.830449999999999     39.729650000000007     35.178129999999996
C      36.620849999999990     38.053349999999995     37.644130000000004
C      38.630449999999996     39.215050000000005     39.148329999999994
C      36.068250000000006     40.396650000000008     36.378129999999999
C      36.795450000000002     39.457750000000004     37.313729999999993
C      37.791049999999998     40.146650000000008     38.353030000000004
C      37.228049999999996     35.892550000000000     37.694230000000005
C      37.238349999999997     34.945349999999998     38.733329999999995
C      39.983450000000005     36.953150000000008     38.701229999999995
C      35.145750000000007     37.877549999999999     37.585229999999996
C      35.588850000000008     34.639749999999999     35.977529999999994
C      36.090950000000007     35.762850000000000     36.690730000000002
C      39.018349999999998     39.632850000000005     40.185029999999998
C      41.108849999999990     37.921750000000003     41.130277000000014
C      41.063450000000003     37.268850000000000     39.803529999999988
C      35.000349999999997     36.780450000000002     36.864229999999992
C      35.191550000000007     33.380949999999999     35.534530000000004
H      36.938749999999999     42.416150000000002     38.683129999999998
H      39.933650000000000     36.342050000000000     37.800430000000006
H      38.371449999999996     43.517449999999997     38.448329999999999
H      35.608149999999995     38.575649999999996     35.437929999999994
H      35.997249999999994     41.519850000000005     36.747730000000004
H      36.048249999999996     40.154949999999999     34.142929999999993
H      34.507449999999992     39.002850000000009     37.694429999999990
H      34.606650000000002     33.061650000000000     34.619529999999997
H      38.889449999999997     40.774250000000009     40.484429999999996
H      41.847849999999994     38.511049999999997     41.673730000000006
H      41.981049999999996     37.077550000000002     39.299429999999994
H      36.966949999999997     40.080950000000001     39.192729999999990
H      34.018950000000004     36.438249999999996     36.434730000000002
H      35.865650000000002     32.482550000000003     35.608429999999991
H      40.302750000000003     37.730750000000000     41.857070000000007
N      38.432649999999995     41.333650000000006     37.876429999999999
N      37.085749999999990     34.271249999999995     39.664229999999996
