8

C      37.515099999999990     37.377799999999993     38.216149999999999
C      38.447800000000001     38.531799999999990     38.002150000000000
H      37.363500000000002     37.218700000000005     39.177250000000001
H      36.569000000000003     37.380400000000002     37.367250000000013
H      39.430999999999997     38.303400000000003     38.433250000000001
H      38.399200000000008     39.616500000000002     38.540649999999999
H      38.645400000000009     38.922000000000004     36.822749999999999
H      37.848199999999991     36.383499999999998     37.931150000000002
