6

C      37.649950000000004     38.251970000000000     37.644449999999992
C      38.081550000000007     37.069140000000004     38.172449999999998
H      37.612949999999998     39.259460000000004     38.393050000000002
H      36.959950000000006     38.378259999999997     36.749849999999995
H      39.040049999999994     36.740539999999996     38.151150000000001
H      38.466549999999998     37.326090000000008     39.250150000000005
