5

C      38.146599999999992     37.899449999999995     37.948449999999994
H      37.527999999999992     38.823449999999994     37.756050000000002
H      38.515099999999990     37.985950000000003     39.014550000000000
H      38.762900000000002     37.856049999999996     36.985450000000000
H      37.237099999999998     37.176550000000006     38.041549999999994
