5

C      37.900750000000002     38.379549999999995     37.983754999999988
H      38.942549999999997     38.718549999999993     37.895524999999992
H      37.057450000000003     38.508650000000003     37.172484999999995
H      37.322049999999990     38.189750000000004     38.827515000000005
H      38.213250000000002     37.281450000000007     37.718744999999998
