34

C      38.280349999999999     37.403349999999989     38.321749999999994
C      36.870650000000012     37.044750000000008     38.517949999999985
C      37.783450000000002     36.189850000000007     33.868650000000002
C      38.981549999999999     37.163250000000005     37.084149999999994
C      36.122950000000003     36.460350000000005     37.397149999999996
C      38.781649999999999     36.732050000000001     34.627150000000000
C      36.559850000000012     36.086950000000002     34.590750000000000
C      38.158750000000012     36.590850000000003     36.072749999999985
C      36.773050000000012     36.270649999999989     35.992649999999983
C      39.030650000000009     38.319649999999996     39.192449999999994
C      38.172550000000001     38.755350000000007     40.395150000000001
C      36.795050000000003     38.302450000000007     40.666349999999994
C      36.285449999999997     37.263549999999995     39.782550000000001
C      40.420749999999998     38.236149999999995     39.167149999999992
C      40.875650000000007     39.266649999999998     40.110050000000001
C      40.262950000000004     39.544149999999988     41.303049999999985
C      38.928250000000006     39.353250000000003     41.367749999999987
C      41.003750000000011     38.009249999999994     37.827349999999996
C      40.316050000000004     37.659149999999997     36.629549999999995
C      40.738250000000008     37.369850000000000     35.342449999999999
C      34.765850000000000     36.440449999999998     37.440849999999998
H      41.938149999999993     38.373950000000008     37.459949999999992
H      37.824150000000003     36.356849999999994     32.736149999999995
H      35.553049999999999     36.168650000000000     34.081949999999992
H      36.072250000000011     38.460049999999995     41.498549999999994
H      35.438050000000004     36.539249999999996     40.036149999999992
H      41.820050000000009     39.747650000000007     39.962049999999991
H      40.834250000000011     40.148849999999996     42.268850000000000
H      41.860550000000003     37.813450000000003     35.505549999999985
H      39.325749999999999     39.669950000000000     43.263850000000005
H      34.061850000000007     35.851150000000004     36.584149999999994
H      34.191749999999999     36.829250000000002     38.309349999999995
N      40.094149999999999     36.924549999999996     34.376449999999991
O      38.647649999999999     39.336050000000000     42.683450000000008
