48

C      35.845099999999995     35.276549999999986     37.934449999999998
C      42.073599999999999     40.954679999999996     40.144750000000009
C      41.555199999999999     42.309759999999997     39.841250000000009
C      36.698200000000000     35.083179999999999     38.989449999999998
C      36.894200000000005     42.236569999999986     37.179250000000003
C      35.130000000000003     36.456709999999987     37.699350000000003
C      41.557499999999997     39.736439999999988     39.881250000000001
C      35.897999999999996     41.235129999999984     37.342449999999999
C      40.327900000000000     42.493729999999985     39.352249999999998
C      37.280300000000004     36.238189999999989     39.647350000000010
C      37.861599999999996     42.430469999999985     38.278849999999998
C      35.515299999999996     38.775179999999992     37.715250000000005
C      39.417299999999997     38.629719999999992     39.521350000000005
C      35.888599999999997     37.570269999999994     38.244950000000010
C      40.160400000000003     39.871159999999989     39.605550000000001
C      36.152799999999999     40.004039999999989     37.882050000000000
C      39.568200000000004     41.218949999999992     39.548149999999993
C      37.176900000000003     37.523529999999994     39.035049999999998
C      38.232200000000006     41.091999999999985     38.976850000000006
C      37.968900000000005     38.754429999999985     39.161450000000009
C      37.524400000000000     40.024819999999991     38.565550000000009
C      39.949900000000000     43.612699999999990     38.806249999999999
C      38.687300000000008     43.520499999999984     38.134750000000004
C      35.247600000000006     33.962337999999988     37.419850000000004
C      35.699900000000000     32.666199999999975     37.829150000000006
C      36.289900000000003     32.566599999999994     39.087350000000008
C      37.131600000000006     33.666340999999989     39.272849999999991
C      33.984100000000005     36.531249999999986     36.741450000000000
C      34.270300000000006     34.169969999999992     36.429150000000000
C      33.789400000000001     35.423039999999986     35.971350000000001
H      43.201699999999995     41.127779999999987     40.523849999999996
H      42.333700000000000     43.060289999999981     39.778449999999999
H      36.436799999999998     43.176599999999993     36.582150000000006
H      41.956899999999997     38.781049999999979     40.051949999999991
H      34.923000000000002     41.354419999999990     36.758650000000003
H      38.127700000000004     36.158569999999983     40.549349999999997
H      34.670500000000004     38.924529999999990     37.101750000000003
H      40.000499999999995     37.692339999999987     39.272950000000002
H      40.505999999999993     44.518599999999992     38.973050000000008
H      35.581500000000005     31.583699999999990     37.221350000000001
H      37.487200000000001     33.296265999999989     40.244650000000000
H      34.133700000000005     33.227757999999994     35.964850000000006
H      38.584000000000003     45.313399999999987     37.087150000000001
H      36.261700000000005     30.686600000000009     39.504849999999998
H      32.798300000000005     35.906169999999989     35.450650000000003
H      33.460200000000000     37.561329999999984     36.433850000000000
O      38.450499999999998     44.405599999999993     37.057350000000000
O      36.469099999999997     31.398599999999984     39.977950000000000
