11

C      37.531399999999991     38.381699999999995     36.033949999999990
C      38.518099999999997     37.823000000000008     38.312849999999997
C      38.593999999999994     37.910800000000009     36.982849999999999
C      38.108599999999996     37.926100000000005     39.786549999999998
H      38.079799999999999     39.094000000000008     35.315249999999999
H      36.936799999999998     39.150199999999998     36.612949999999998
H      36.591600000000000     37.671000000000006     36.026649999999997
H      39.408400000000000     37.430599999999998     36.537050000000001
H      38.822699999999990     38.020499999999998     40.684750000000001
H      36.945099999999996     38.467100000000002     39.920449999999995
H      37.932899999999997     36.849800000000002     39.963749999999997
