5

C      38.277499999999996     38.352999999999994     37.961149999999996
H      38.561500000000002     38.728899999999996     38.988950000000003
H      37.316699999999997     38.467599999999990     38.467550000000003
H      38.683300000000003     38.779100000000000     37.011049999999997
H      38.603299999999997     37.220900000000000     38.050850000000004
