19

C      37.901600000000002     37.940015000000002     35.609599999999993
C      38.031199999999998     36.691974999999999     36.212200000000003
C      37.818200000000004     36.327314999999999     37.605300000000000
C      38.127300000000005     37.250415000000004     38.472999999999992
C      38.103300000000004     38.644105000000010     37.938299999999998
C      37.922699999999992     39.024505000000005     36.542000000000002
C      38.273200000000003     36.646975000000012     39.788899999999998
C      37.834699999999998     37.563445000000002     40.961500000000001
H      39.159700000000001     38.308695000000000     34.217599999999997
H      37.299700000000001     40.713355000000007     37.027700000000003
H      38.623800000000003     36.976105000000004     41.782400000000003
H      37.984999999999999     35.775604999999999     35.654699999999991
H      37.813099999999991     35.286644999999993     37.750599999999999
H      38.537499999999994     39.331535000000002     38.845599999999990
H      36.840299999999999     37.186255000000003     41.428100000000001
H      37.654899999999998     38.503255000000010     41.540499999999994
O      38.600399999999993     35.469935000000007     39.895200000000003
O      38.245000000000005     38.314225000000008     34.308900000000001
O      37.849800000000002     40.293454999999994     36.150900000000000
