142

C      32.674154999999992     34.937039999999996     36.423719999999996
C      33.818404999999998     29.853270000000006     45.694150000000008
C      33.145534999999995     35.942040000000006     37.246900000000004
C      33.534314999999999     29.259460000000008     44.413620000000002
C      32.561644999999999     33.578840000000000     36.947359999999996
C      33.465734999999988     31.197830000000007     45.817350000000005
C      33.794154999999989     35.641739999999999     38.546060000000004
C      33.056474999999999     29.867990000000002     43.171180000000007
C      33.445184999999988     31.878230000000006     38.747119999999995
C      33.809314999999998     35.180040000000005     42.797080000000008
C      33.966264999999993     35.381840000000011     41.411230000000003
C      33.310395000000000     31.765270000000005     40.095149999999997
C      33.398474999999998     33.395470000000003     44.614409999999999
C      33.101994999999995     33.203800000000001     38.326100000000004
C      33.310584999999996     31.835430000000006     44.638720000000006
C      33.255814999999998     33.905940000000001     43.142130000000009
C      33.543255000000002     34.341539999999995     39.182610000000004
C      33.102935000000002     31.350280000000009     43.288379999999997
C      33.798144999999998     34.185540000000003     40.660980000000002
C      33.576345000000003     32.847000000000008     41.113150000000005
C      33.269514999999998     32.572040000000001     42.484550000000006
C      34.144525000000002     36.734540000000010     39.273300000000006
C      34.624764999999996     36.373640000000009     40.612070000000003
C      32.015194999999999     35.344840000000005     35.146424600000003
C      32.244295000000001     36.583140000000000     34.585050000000010
C      33.173405000000002     37.552240000000012     35.173656999999999
C      33.402185000000003     37.268239999999992     36.549430000000008
C      33.746254999999991     38.258640000000000     37.602170000000001
C      33.673945000000003     38.262839999999997     38.949340000000007
C      31.154584999999997     34.368939999999995     34.402650000000008
C      34.385095000000000     36.132640000000009     43.874730000000007
C      32.709444999999995     40.263539999999992     39.822820000000007
C      35.689964999999994     37.350639999999999     41.171110000000006
C      33.699074999999993     38.321640000000002     34.066449999999996
C      33.610664999999990     39.095540000000000     40.079350000000005
C      35.023164999999999     42.869540000000001     32.929650000000002
C      41.342564999999993     36.761240000000001     35.382588000000005
C      34.370165000000000     41.605340000000012     33.316650000000010
C      41.723764999999993     38.078440000000001     35.931003000000004
C      36.432064999999994     42.651640000000000     32.789149999999999
C      39.920664999999993     36.542540000000002     35.024050000000010
C      35.060265000000001     40.558440000000004     33.916350000000008
C      40.936565000000002     39.240240000000000     35.837841000000004
C      38.544865000000001     42.406940000000006     34.075950000000006
C      39.381564999999988     41.500639999999990     34.764350000000000
C      37.947164999999991     38.173840000000013     34.114150000000009
C      37.275464999999990     41.933940000000007     33.766849999999998
C      39.233964999999991     37.752240000000000     34.798949999999998
C      36.570864999999998     40.633039999999994     33.984950000000005
C      39.830864999999996     39.056240000000003     34.978549999999991
C      38.896965000000002     40.121539999999996     34.729949999999995
C      37.549964999999993     39.658739999999995     34.321350000000010
C      41.346064999999989     40.687539999999998     36.121430000000004
C      40.784765000000000     41.671239999999997     35.298884000000008
C      34.589565000000000     44.285240000000002     32.905250000000002
C      33.164555000000000     44.395439999999994     33.295749999999991
C      32.431465000000003     43.304239999999993     33.927450000000000
C      33.009954999999998     42.071040000000011     33.864050000000006
C      42.097564999999996     35.598740000000006     35.762481000000001
C      43.338265000000000     35.839039999999997     36.496540000000003
C      43.104765000000000     38.155540000000002     36.524720000000002
C      43.373164999999993     39.431640000000002     36.972040000000007
C      42.688665000000000     40.689940000000007     36.801060000000000
C      35.330364999999993     45.544840000000008     33.096150000000009
C      34.749465000000001     46.678539999999998     33.457349999999998
C      33.298484999999992     46.685040000000001     33.245850000000004
C      32.512074999999996     45.590940000000003     33.482350000000004
C      37.177364999999988     42.394440000000003     31.468950000000007
C      36.750564999999987     45.827340000000007     32.545950000000012
C      39.372164999999995     35.169539999999998     34.724749999999993
C      40.422764999999991     34.114240000000009     34.854050000000008
C      41.686564999999995     34.233840000000001     35.436005000000009
C      34.517134999999996     39.292839999999998     34.531250000000000
C      31.530834999999996     40.037540000000007     33.945050000000016
C      32.394354999999997     40.846239999999995     34.588250000000002
C      43.220464999999997     41.691240000000008     37.745249999999999
C      44.360965000000000     41.568340000000006     38.763810000000007
C      36.798064999999994     42.990240000000000     30.242950000000008
C      35.845565000000001     44.139039999999994     29.895949999999992
C      44.546664999999997     42.686839999999989     39.734190000000005
C      38.055565000000001     34.855840000000001     34.651750000000007
C      33.133875000000003     31.032910000000005     37.902720000000002
H      33.966785000000002     35.749639999999999     44.803620000000009
H      37.051265000000001     44.825540000000004     32.269150000000010
H      34.396164999999996     33.757739999999998     45.172750000000001
H      36.847965000000002     46.562040000000010     33.437750000000015
H      34.085784999999994     29.170300000000008     46.701649999999994
H      33.755994999999992     28.308860000000006     43.875350000000005
H      32.818134999999998     29.186280000000007     42.337670000000003
H      32.275354999999998     32.697030000000012     36.183100000000003
H      33.007294999999999     30.712250000000008     40.252480000000006
H      32.713355000000000     34.157740000000004     45.156250000000007
H      31.898125000000000     36.707039999999992     33.612150000000007
H      30.505034999999999     33.688140000000004     35.035049999999991
H      31.655594999999998     33.142740000000003     34.297750000000008
H      35.447864999999993     35.805940000000007     44.050230000000006
H      34.398395000000001     37.223739999999992     43.272489999999998
H      33.143074999999989     40.852739999999997     39.026950000000006
H      33.075674999999990     41.181840000000008     40.530159999999995
H      31.755854999999997     39.893140000000002     39.850820000000006
H      36.064165000000003     36.987740000000002     42.162460000000003
H      33.242714999999997     39.104840000000010     37.097790000000003
H      32.954084999999999     38.429940000000002     33.057450000000010
H      33.126075000000000     32.723759999999999     47.121550000000006
H      36.672064999999996     37.347239999999999     40.571200000000005
H      35.763464999999997     38.442040000000006     40.922370000000008
H      38.537664999999990     43.351239999999990     33.567550000000011
H      37.222265000000000     37.854540000000000     34.925850000000011
H      37.921165000000002     37.729640000000003     33.023750000000007
H      41.484265000000001     42.520540000000011     34.930550000000018
H      31.359254999999997     43.411340000000010     34.354450000000000
H      44.159364999999994     34.978940000000009     36.628380000000000
H      44.167864999999992     39.325139999999990     37.716130000000007
H      32.741704999999996     47.691139999999990     33.100549999999998
H      35.041465000000002     47.609139999999996     34.038950000000000
H      37.256765000000001     46.247739999999993     31.678250000000006
H      40.025664999999996     33.151029999999992     34.478050000000010
H      35.229364999999994     39.147640000000010     35.366189000000006
H      33.834895000000003     38.701340000000002     41.095140000000008
H      31.157424999999996     40.418640000000011     32.890350000000005
H      31.080475000000000     39.123740000000012     34.458050000000000
H      32.836314999999999     40.366140000000001     35.555631000000005
H      45.227464999999988     41.477940000000004     38.275909999999996
H      44.443164999999993     40.515540000000001     39.212500000000006
H      30.901794999999993     45.048840000000013     34.594950000000011
H      37.530765000000002     42.864739999999998     29.312950000000001
H      38.174164999999995     42.017339999999990     31.652149999999999
H      35.801564999999997     43.643940000000001     28.878449999999994
H      36.555364999999988     45.024640000000005     29.937650000000005
H      34.745864999999988     44.072139999999990     30.336049999999993
H      45.494965000000001     43.272639999999996     39.895099999999999
H      44.814864999999990     42.046540000000007     40.513990000000007
H      43.721265000000002     43.154439999999994     40.144000000000005
H      37.459564999999998     33.952240000000003     34.575550000000000
H      42.453764999999997     33.616040000000012     35.767618000000006
H      30.812464999999996     34.745940000000004     33.464850000000006
H      32.789234999999991     30.113430000000005     37.343450000000004
H      37.638064999999990     35.768639999999991     34.768550000000005
N      43.757864999999995     37.053440000000009     36.770139999999998
O      33.454565000000002     31.773180000000007     47.057550000000006
O      42.817664999999998     42.833740000000006     37.693380000000005
O      31.675555000000003     45.624040000000008     34.643349999999991
