6

C      37.354569999999995     37.902000000000001     38.342399999999998
C      38.668170000000003     38.236500000000007     37.906100000000009
H      36.895979999999994     37.064099999999996     37.746700000000004
H      36.642030000000005     38.481600000000000     38.966500000000011
H      39.111069999999998     37.855599999999995     37.033499999999989
H      39.357969999999995     38.935900000000004     38.208700000000007
