8

C      37.787599999999998     37.662449999999993     37.147149999999996
C      38.027900000000002     38.660749999999993     38.328550000000007
H      38.841899999999995     37.462850000000003     36.769450000000006
H      37.531300000000016     36.712550000000007     37.391050000000007
H      36.909400000000005     38.214050000000000     36.841350000000006
H      37.219499999999996     39.287449999999993     38.904450000000011
H      39.090599999999995     38.916550000000001     38.189449999999994
H      37.841699999999989     37.952849999999998     39.230549999999994
