29

C      38.210549999999998     37.691199999999995     38.041012299999991
C      38.656549999999996     37.293199999999999     36.693110000000004
C      35.548050000000003     40.474399999999989     35.200810000000004
C      37.067149999999998     38.572399999999988     38.151437999999999
C      37.901650000000004     37.720500000000001     35.619910000000004
C      35.790450000000007     40.392899999999997     36.629709999999989
C      36.093850000000003     39.257499999999993     34.674710000000005
C      36.593050000000005     39.253399999999999     36.927910000000011
C      36.775949999999995     38.555099999999996     35.610310000000013
C      38.535849999999996     36.873800000000003     39.130210000000005
C      39.516549999999995     35.856499999999997     39.001059999999995
C      39.720550000000003     36.363900000000001     36.681910000000002
C      37.855950000000007     37.025300000000001     40.531509999999997
C      38.265950000000004     36.280900000000003     41.645719999999997
C      39.372050000000002     35.260300000000001     41.419039999999995
C      40.033050000000003     35.251300000000001     40.172200000000004
C      36.638850000000005     37.840500000000006     40.387079999999997
C      36.318049999999999     38.687899999999999     39.298879999999997
H      34.975650000000002     41.276300000000006     34.686410000000009
H      38.396249999999995     37.604699999999994     34.681109999999990
H      35.110450000000000     40.882900000000006     37.461109999999991
H      35.855850000000004     38.921499999999995     33.456609999999998
H      40.367850000000004     36.051500000000004     35.816710000000000
H      37.770550000000000     36.122799999999998     42.543390000000002
H      40.016549999999995     34.959299999999999     42.269390000000001
H      41.024349999999998     34.723699999999994     39.944460000000007
H      36.071550000000002     38.007099999999994     41.284180000000006
H      35.862549999999999     39.528999999999996     39.532880000000006
N      40.083150000000003     35.730599999999995     37.835209999999989
