42

C      37.261651499999985     39.035299999999992     37.350499999999990
C      38.027851499999997     38.824400000000004     36.134799999999998
C      35.579951499999993     34.540500000000002     37.018400000000000
C      36.354851500000009     34.164899999999996     35.931399999999989
C      36.418251499999997     37.969600000000000     37.862200000000001
C      37.988251500000004     37.542599999999993     35.475400000000000
C      35.439851499999989     35.630400000000002     37.707499999999996
C      37.421451500000003     35.114100000000001     35.577999999999996
C      36.428251500000002     36.582699999999996     37.154399999999995
C      37.099751500000011     36.401000000000003     35.908999999999999
C      37.447851499999999     40.343899999999991     37.758399999999995
C      38.575351500000011     41.293299999999995     37.515199999999986
C      39.538851500000007     40.850000000000001     36.565100000000001
C      39.242351499999984     39.528899999999993     35.989400000000003
C      35.806951499999997     38.266100000000002     39.121099999999998
C      35.790351500000000     39.518499999999989     39.636200000000002
C      36.415051500000004     40.684400000000004     38.972700000000003
C      40.741751500000007     41.687299999999993     36.315299999999993
C      35.210251499999998     39.904199999999996     40.988399999999992
C      38.529651499999986     34.832999999999998     35.052399999999999
C      35.608251499999994     41.846699999999998     38.073200000000000
C      39.783651500000005     35.489100000000001     35.937199999999997
H      34.957151500000009     33.817799999999998     37.388499999999993
H      36.167451499999999     33.182899999999997     35.396999999999991
H      38.865151499999996     37.642000000000003     34.851799999999997
H      34.793751499999999     35.862200000000001     38.641199999999998
H      38.430851499999989     42.228800000000000     37.724999999999987
H      39.993151499999996     38.901599999999995     35.545299999999997
H      35.360251500000004     37.433299999999996     39.663599999999995
H      36.807151500000003     41.347699999999996     39.822599999999994
H      41.379848500000008     41.513699999999993     35.391599999999990
H      34.620151499999992     40.881999999999998     41.083199999999998
H      36.173951500000001     40.210999999999991     41.345599999999997
H      35.098051499999997     39.229300000000002     41.957999999999998
H      38.633551500000010     34.611799999999995     34.042000000000002
H      35.034451500000003     42.386599999999994     38.822000000000003
H      35.052851499999989     41.188299999999991     37.445499999999996
H      36.210651499999997     42.636599999999994     37.562500000000000
H      39.470951499999998     35.385399999999997     36.919699999999992
H      40.087251499999994     36.575699999999998     35.561599999999999
H      40.889751500000003     35.122299999999996     35.308099999999996
O      40.746951500000009     42.817100000000003     36.695799999999998
