6

C      38.089329999999997     38.190149999999996     37.866899999999987
H      38.264909999999993     39.365150000000000     37.519800000000004
H      37.975030000000004     38.672750000000001     38.908100000000005
H      39.004469999999998     37.913950000000000     37.337900000000005
H      36.995530000000002     36.634850000000000     37.091899999999995
O      37.004800000000003     37.326550000000005     37.664299999999997
