49

C      38.588549999999991     39.480900000000005     39.153749999999988
C      37.325850000000003     39.991600000000005     39.551749999999998
C      36.056750000000001     37.367100000000008     35.322149999999993
C      34.970250000000000     38.308100000000010     35.803249999999991
C      38.351450000000000     38.459200000000010     38.160449999999997
C      36.398649999999996     40.446600000000004     38.538449999999997
C      37.247250000000001     37.620600000000010     36.027749999999997
C      35.109049999999996     39.449400000000011     36.521249999999995
C      37.205449999999999     38.395600000000002     37.311149999999998
C      36.240249999999996     39.447200000000009     37.537849999999992
C      39.777450000000002     39.630099999999999     40.059849999999997
C      39.328749999999992     39.794300000000007     41.390649999999994
C      38.011449999999996     39.931200000000004     41.975749999999991
C      36.989249999999998     39.820900000000009     40.958949999999987
C      35.721049999999998     36.037900000000008     34.818549999999988
C      34.415249999999993     35.712500000000006     34.365549999999999
C      33.645750000000000     36.958700000000007     34.071550000000002
C      33.901949999999999     38.020500000000013     34.731749999999991
C      40.991250000000001     38.908300000000011     39.581949999999992
C      42.146050000000002     39.227800000000002     40.313350000000000
C      41.792949999999990     39.876200000000011     41.517249999999990
C      40.492849999999990     40.023800000000008     42.064549999999997
C      40.761349999999993     37.565500000000014     38.912149999999997
C      39.574849999999998     37.722800000000007     37.855949999999993
C      39.706849999999989     37.187600000000003     36.548449999999988
C      38.540950000000002     36.996400000000008     35.904649999999990
C      32.829549999999998     38.985600000000005     34.886049999999997
C      32.304249999999996     39.210600000000014     33.564250000000001
C      42.932850000000002     40.526300000000006     42.352149999999995
H      35.566549999999999     41.232500000000002     38.655449999999988
H      34.458950000000002     40.360200000000006     36.452749999999995
H      37.993949999999998     40.360200000000006     43.068049999999999
H      35.887050000000002     40.110600000000005     41.107249999999993
H      36.453749999999999     35.207100000000011     34.999549999999999
H      32.717449999999999     36.996400000000008     33.294849999999997
H      40.199149999999996     40.382000000000005     42.951149999999998
H      41.036549999999998     36.753500000000003     39.569649999999996
H      40.679749999999991     36.777000000000015     36.441449999999989
H      41.495350000000002     37.101600000000005     38.212750000000000
H      38.711649999999999     36.438900000000004     34.974249999999998
H      32.972450000000002     39.042600000000007     32.738950000000003
H      31.822550000000000     40.083300000000008     33.631649999999993
H      44.177450000000000     38.538200000000003     39.748149999999995
H      42.373950000000001     40.975400000000008     43.261049999999997
H      43.416449999999990     41.294600000000003     41.627549999999999
H      43.623349999999995     39.727800000000002     42.635849999999991
H      34.267949999999999     34.705399999999997     33.980949999999993
O      32.373350000000002     39.390300000000011     36.019250000000000
O      43.402450000000002     38.456800000000001     40.275049999999993
