46

C      38.387050000000002     35.459399999999988     39.136086499999990
C      37.152349999999998     35.992299999999993     38.735136500000010
C      41.390249999999995     41.997100000000003     39.463926499999999
C      40.171750000000003     42.638000000000005     38.929166500000008
C      39.443049999999999     36.308099999999996     39.619636499999999
C      36.843249999999998     37.475199999999994     38.831866500000004
C      39.082350000000005     41.720899999999993     38.564866500000008
C      40.246549999999999     38.610399999999991     39.905606500000005
C      39.230149999999995     37.656599999999997     39.630966500000000
C      37.963449999999995     38.298899999999996     39.078966500000007
C      40.370649999999998     39.958499999999994     39.581896499999999
C      39.136949999999999     40.316099999999992     38.839106500000000
C      38.867450000000005     34.157800000000002     38.843336500000007
C      38.077849999999998     33.279299999999999     37.950016500000004
C      36.758750000000006     33.800100000000000     37.756156500000003
C      36.251450000000006     35.167299999999997     37.956606500000007
C      40.724350000000001     35.437899999999999     39.678816499999996
C      42.059950000000001     35.496699999999997     40.037016500000007
C      40.366450000000000     33.936000000000000     39.173186500000000
C      35.510450000000006     37.888299999999994     38.511216500000003
C      34.575550000000007     37.018699999999995     37.795906500000001
C      34.868350000000007     35.579699999999988     37.634596500000001
C      38.116650000000007     42.131399999999992     37.480956500000005
C      35.335949999999997     39.352300000000000     38.746866500000010
C      34.860450000000000     40.024999999999991     37.791586500000008
C      34.293650000000000     34.921099999999988     36.364466499999992
H      40.074749999999995     43.661400000000000     38.718166500000009
H      42.229650000000007     42.756799999999998     39.619256500000006
H      41.002750000000006     37.844099999999990     40.142486499999990
H      38.478750000000005     32.338600000000000     37.644936500000000
H      36.051450000000003     33.106000000000002     37.241726499999999
H      42.370549999999994     36.370499999999993     40.466766499999991
H      42.694050000000004     34.689200000000000     39.659286500000007
H      40.848749999999995     33.675300000000000     38.338326500000008
H      40.477649999999997     33.258099999999999     39.949586499999995
H      33.651350000000008     37.335799999999999     37.124456500000008
H      37.313850000000002     42.751099999999994     37.847586500000006
H      34.806849999999997     41.268400000000000     38.151936500000005
H      34.329949999999997     39.661999999999999     36.975066499999997
H      36.074150000000003     39.642199999999995     39.443466500000000
H      34.652550000000005     33.790399999999991     36.438266499999997
H      34.567250000000001     35.491900000000001     35.533233500000009
H      33.305949999999996     34.768299999999989     36.526776499999997
N      41.437749999999994     40.758600000000001     39.808296499999997
N      38.165750000000003     39.525700000000001     38.517256500000002
O      38.054550000000006     41.579399999999993     36.436266500000002
