5

C      37.755149999999993     37.769999999999996     37.846649999999997
H      37.353750000000005     38.972700000000003     37.689450000000001
H      37.825550000000007     37.254099999999994     38.865249999999996
H      37.348349999999996     37.027299999999997     37.134750000000004
H      38.651650000000004     38.190899999999999     37.340049999999998
