5

C      38.028849999999991     37.342699999999994     37.833879999999994
C      37.392249999999997     38.532499999999999     37.909790000000001
H      39.231850000000001     37.341300000000004     38.166120000000006
H      37.283650000000002     36.420500000000004     37.911450000000002
O      36.768149999999999     39.579499999999996     37.977719999999991
