50

C      41.541799999999988     39.287844999999990     37.130618499999983
C      41.284799999999997     39.754264999999990     38.470318499999998
C      33.564899999999994     35.629534999999990     40.075318499999995
C      34.008199999999995     36.908375000000007     40.447118499999995
C      40.503799999999998     39.037275000000008     36.182618499999997
C      39.961299999999994     39.326075000000003     38.869618499999987
C      34.166100000000000     35.006754999999998     38.961718499999996
C      35.179499999999997     37.411535000000001     39.842918500000003
C      38.249200000000002     37.584265000000002     36.212918499999986
C      37.654800000000002     38.394625000000005     38.697318500000002
C      39.190899999999999     38.431695000000005     36.683918499999997
C      38.834499999999998     38.857174999999998     38.038018500000000
C      35.069899999999997     35.610624999999999     38.218518499999995
C      36.845700000000001     37.423074999999997     36.562618499999992
C      35.613100000000003     36.877205000000004     38.645818499999997
C      36.726799999999997     37.684015000000002     38.005218499999991
C      35.870999999999995     38.561744999999988     40.644518499999997
C      37.262799999999999     38.988765000000001     40.074518499999989
C      38.351099999999995     39.466695000000001     40.784618499999993
C      39.702700000000000     39.594194999999999     40.289918499999992
C      42.731799999999993     39.981065000000001     36.708518499999990
C      43.518000000000001     40.997264999999999     37.523218499999984
C      43.057800000000000     41.451565000000002     38.783718499999999
C      42.253999999999998     40.428064999999989     39.401018499999992
C      41.664999999999999     40.486464999999995     40.789418499999989
C      40.777299999999997     39.271805000000001     34.800418499999999
C      41.757099999999994     40.188564999999997     34.398218499999992
C      42.834800000000001     40.356965000000002     35.283618499999996
C      33.117500000000000     37.559065000000004     41.466618499999996
C      42.653699999999994     40.919965000000005     41.760218500000001
H      36.486999999999995     36.683045000000007     34.835718499999992
H      43.792299999999990     40.908064999999993     35.013518499999996
H      32.981400000000001     37.022365000000008     42.485907500000010
H      32.682900000000004     34.984755000000007     40.488318499999998
H      33.766599999999997     34.031234999999995     38.635818499999992
H      38.337499999999999     37.233954999999995     35.218518499999995
H      35.390500000000003     34.804224999999988     37.633418499999991
H      37.781999999999996     39.608354999999989     41.839918500000003
H      43.778199999999998     41.584365000000005     36.509218499999996
H      43.939000000000000     41.968765000000005     39.234218499999990
H      40.000900000000001     39.237605000000002     34.036918499999992
H      41.741499999999988     40.644864999999996     33.372018500000003
H      33.296500000000002     38.578005000000005     41.960818499999988
H      32.061000000000000     37.179704999999998     41.237318499999986
H      35.244599999999998     39.296244999999999     41.130818499999997
H      43.824299999999994     41.105865000000009     41.678118499999989
H      42.437399999999990     41.422664999999995     42.627981499999997
H      36.153300000000002     38.066804999999988     41.661718499999992
N      35.883899999999997     36.951385000000002     35.807118499999994
N      40.434799999999989     40.197765000000004     41.100318499999993
