56

C      38.947675999999987     35.651749999999993     37.301084999999993
C      39.145606000000001     34.977449999999990     38.437584999999999
C      36.071646000000001     40.937150000000003     40.794885000000001
C      38.127036000000004     36.820350000000005     37.114384999999999
C      38.456866000000005     35.617050000000006     39.697185000000005
C      36.192475999999999     40.818450000000013     39.363384999999994
C      36.055465999999996     39.627050000000011     41.357785000000000
C      36.857615999999993     38.727050000000006     37.830385000000000
C      36.707605999999984     37.367950000000008     40.646985000000001
C      37.479686000000001     37.433549999999997     38.182185000000004
C      37.327485999999993     36.647150000000011     39.507685000000002
C      36.245695999999995     39.466650000000001     38.969585000000002
C      36.280916000000005     38.755850000000009     40.268484999999998
C      39.551665999999997     35.200550000000007     35.938185000000004
C      40.424005999999991     34.043350000000004     36.047685000000001
C      40.659025999999997     33.431550000000001     37.385384999999999
C      40.058495999999991     33.875550000000004     38.580685000000003
C      39.492525999999998     35.398349999999994     34.571145000000001
C      40.939076000000000     33.803850000000011     33.708114999999999
C      41.107696000000004     33.363150000000005     35.060884999999999
C      38.323115999999999     36.422250000000005     34.608514999999997
C      37.713955999999996     37.196850000000012     35.733284999999995
C      37.218485999999999     38.437150000000003     35.402484999999999
C      36.868145999999996     39.332950000000011     36.409685000000003
C      37.272165999999999     40.721849999999989     36.409784999999999
C      35.959006000000002     41.831050000000005     38.277185000000003
C      35.958165999999991     36.448049999999995     41.556084999999996
C      35.336336000000003     36.694049999999990     42.891985000000005
C      36.208735999999988     42.219250000000002     41.619585000000001
C      35.565585999999996     41.484050000000011     36.948684999999998
C      37.873075999999998     36.676450000000003     33.323475000000002
C      35.754065999999995     43.271150000000006     38.441784999999996
H      37.971006000000003     34.463349999999991     40.034984999999992
H      38.848135999999997     35.590250000000012     40.750384999999994
H      35.666215999999991     39.177250000000001     42.351484999999997
H      41.430375999999995     32.812049999999999     37.366685000000004
H      40.346596000000005     33.117050000000006     39.353884999999998
H      40.980505999999991     33.200150000000008     32.796374999999998
H      41.596236000000005     32.293650000000000     35.110384999999994
H      37.348405999999997     38.882850000000005     34.586865000000003
H      38.157725999999997     41.187950000000001     36.899585000000002
H      36.932766000000001     40.953950000000006     35.396484999999998
H      36.110805999999997     37.095250000000007     43.579484999999998
H      34.660122000000001     35.903050000000007     43.093784999999990
H      34.403763999999995     37.326849999999993     42.431885000000001
H      36.703136000000001     41.933949999999996     42.661085000000000
H      34.999076000000002     43.706350000000000     37.733884999999994
H      35.090986000000001     42.188950000000006     36.214784999999992
H      34.907348999999996     40.609050000000011     37.034085000000005
H      38.486975999999999     36.131350000000012     32.420515000000002
H      37.183675999999991     37.410150000000002     33.023625000000003
H      35.979026000000005     43.700350000000000     39.352184999999992
H      37.072025999999994     42.757549999999995     40.877785000000003
H      35.021175999999997     42.222849999999994     42.197284999999994
N      40.288015999999985     34.998850000000004     33.522725000000001
O      35.775096000000005     35.341950000000011     41.132284999999989
