61

C      34.625150000000005     34.441024999999996     36.001184999999992
C      42.186050000000009     40.229425000000020     37.878884999999997
C      41.489350000000002     41.392955000000015     38.440485000000002
C      35.925650000000005     34.495725000000007     36.589284999999990
C      34.043550000000010     35.791609000000008     36.003385000000002
C      41.646050000000002     39.036635000000018     37.416784999999990
C      40.208449999999999     41.405325000000005     38.855285000000002
C      36.479550000000003     35.613092000000009     37.359784999999988
C      33.713450000000009     37.734305000000006     37.386585000000004
C      34.124549999999999     38.433395000000019     38.605684999999994
C      35.962850000000003     39.919515000000018     39.384284999999998
C      37.301649999999995     40.478885000000005     39.507984999999998
C      39.377150000000000     37.756715000000014     37.795684999999999
C      34.613250000000008     36.756075000000010     36.865485000000000
C      35.614150000000009     38.707435000000004     38.634385000000002
C      40.292850000000001     38.874504999999999     37.923484999999999
C      39.611549999999994     39.947665000000015     38.748984999999990
C      35.907349999999994     36.919015000000016     37.410884999999993
C      38.349750000000000     39.566725000000005     39.105084999999988
C      38.195450000000008     38.252605000000003     38.371985000000002
C      36.779949999999999     37.927055000000010     38.260084999999997
C      39.060550000000006     42.268975000000012     39.341484999999999
C      37.743850000000009     41.886005000000011     39.682684999999992
C      34.219750000000005     33.288925000000006     35.231585000000003
C      34.914549999999991     32.116924999999995     35.366785000000000
C      36.331650000000010     32.287925000000001     35.564084999999999
C      36.844850000000008     33.424125000000004     36.217684999999989
C      43.593850000000003     40.531215000000003     37.536884999999991
C      44.316350000000000     41.684465000000003     38.091884999999998
C      43.467550000000003     42.725835000000004     38.551784999999995
C      42.059349999999995     42.714495000000014     38.577984999999991
C      40.972049999999996     43.803695000000019     38.676285000000000
C      39.663450000000012     43.588464999999999     39.191884999999992
C      32.542950000000005     38.127035000000006     36.786985000000001
C      31.498850000000008     38.979075000000009     37.409385000000000
C      32.003650000000007     39.640425000000008     38.550284999999995
C      33.141150000000010     39.214044999999999     39.307285000000000
C      32.062150000000003     37.238695000000007     35.643184999999995
C      32.718150000000009     36.029077000000015     35.467084999999997
C      33.608249999999998     40.187655000000007     40.377085000000001
C      35.109050000000011     40.548175000000015     40.287685000000003
H      32.978050000000010     39.846805000000003     41.299884999999996
H      42.165549999999996     38.144475000000014     37.315884999999994
H      37.529850000000010     35.730674000000008     37.633884999999999
H      33.317950000000010     41.258705000000006     40.250885000000004
H      39.276250000000005     37.073825000000014     37.176785000000002
H      36.850850000000008     42.389425000000017     40.243684999999999
H      33.369350000000011     33.066825000000009     34.700115000000004
H      34.448149999999998     31.240824999999997     34.870984999999997
H      37.022550000000010     31.632825000000008     35.047485000000002
H      38.028149999999997     33.478324999999998     36.614685000000001
H      44.211650000000006     39.831915000000009     37.110684999999997
H      45.420850000000002     41.833205000000007     38.207884999999997
H      43.997650000000007     43.723445000000012     38.579185000000003
H      41.143950000000004     44.759174999999999     38.056284999999995
H      39.430850000000007     44.718245000000010     39.554884999999992
H      30.579150000000002     39.274885000000012     36.547484999999995
H      31.350650000000005     40.421195000000012     38.996585000000003
H      31.116350000000001     37.405425000000008     35.330584999999992
H      32.323950000000011     35.159124999999989     35.077385000000000
H      35.212650000000011     41.539225000000002     40.813685000000000
