6

C      38.501300000000001     37.997599999999991     37.538200000000003
C      37.334500000000006     38.119199999999992     38.308800000000005
H      38.238399999999999     37.000600000000006     36.906700000000001
H      39.484999999999999     38.490099999999998     37.575000000000003
H      37.647199999999998     38.999399999999994     39.093299999999999
H      36.515000000000001     37.511300000000006     37.793199999999999
