48

C      35.485859999999988     38.068349999999995     39.066999999999993
C      35.368959999999994     36.859650000000002     38.209629999999997
C      42.580130000000004     37.578250000000004     37.340019999999996
C      36.715659999999993     38.774450000000002     39.078710000000001
C      36.509459999999997     36.115150000000000     37.744380000000000
C      39.418110000000006     35.099449999999997     37.007370000000002
C      38.972720000000002     39.173050000000003     38.488779999999998
C      40.251210000000000     38.659149999999997     37.887799999999999
C      37.856378000000007     38.170650000000002     38.378900000000002
C      40.200320000000005     37.321750000000002     37.396819999999998
C      37.660859999999985     36.897150000000003     37.768119999999996
C      39.161970000000004     36.374350000000000     37.447159999999997
C      34.200259999999993     38.315149999999996     39.732739999999993
C      33.096359999999997     36.507650000000005     39.117849999999997
C      33.943760000000005     36.181350000000002     38.200020000000002
C      38.888450000000006     40.528349999999996     39.045290000000001
C      40.255570000000013     41.041849999999997     39.509989999999995
C      41.420940000000002     40.559050000000006     39.022880000000001
C      41.465960000000010     39.322850000000003     38.326160000000002
C      37.786959999999993     41.051949999999998     39.598749999999988
C      36.753660000000004     40.066549999999999     39.741079999999990
C      34.268359999999994     39.777450000000002     40.080069999999992
C      35.476959999999998     40.581949999999999     40.224719999999998
C      40.700770000000006     34.404050000000005     36.792369999999998
C      41.863729999999997     35.383550000000000     36.573723000000001
C      32.943059999999996     40.376249999999999     39.560609999999990
C      42.736830000000005     38.679549999999999     38.062909999999995
H      33.849160000000005     35.235549999999996     37.641179999999999
H      38.487011000000003     34.589149999999997     36.840879999999999
H      43.514600000000002     37.253350000000005     36.861339999999998
H      32.168659999999996     35.852049999999998     39.288519999999998
H      37.795359999999995     42.182449999999996     39.852329999999995
H      35.647960000000005     41.754750000000001     40.093170000000001
H      42.014520000000005     35.283349999999999     35.417480000000005
H      42.792470000000002     35.062649999999998     37.265549999999998
H      39.621069999999996     42.700449999999996     40.582519999999995
H      35.712359999999990     34.323250000000002     37.720729999999996
H      33.248359999999991     40.754150000000003     38.546019999999999
H      32.502159999999996     39.486049999999999     39.334669999999996
H      32.555159999999994     41.313349999999993     39.708320000000001
H      43.831340000000004     38.965149999999994     38.107979999999998
H      43.250090000000007     41.102950000000000     40.168549999999989
N      41.521340000000002     36.807549999999999     37.158290000000001
N      33.141860000000001     37.534350000000003     39.956370000000000
O      41.035339999999998     33.299550000000004     36.504736000000001
O      40.186260000000004     42.078049999999998     40.484110000000001
O      42.598840000000003     41.102550000000001     39.412479999999995
O      36.341759999999994     34.850250000000003     37.200589999999998
