44

C      42.074350000000003     35.695149999999998     37.025349999999996
C      42.330549999999995     37.090649999999997     36.878550000000004
C      34.430750000000003     40.837450000000004     38.567650000000000
C      36.537850000000006     33.948350000000005     36.896850000000001
C      35.505849999999995     41.334350000000001     38.132050000000000
C      34.057250000000003     39.407950000000000     38.548449999999995
C      35.535550000000001     34.898850000000010     36.754350000000002
C      40.656149999999997     35.280349999999999     36.951949999999997
C      41.228650000000002     37.848350000000011     37.008949999999999
C      37.875850000000007     34.471450000000004     37.040749999999996
C      37.897550000000003     40.932950000000005     37.479550000000003
C      38.903450000000007     40.095150000000004     36.976749999999996
C      34.603350000000006     37.108350000000002     37.353950000000005
C      36.551950000000005     40.437150000000003     37.722450000000009
C      34.888549999999995     38.501750000000001     37.872350000000004
C      35.698750000000004     36.346850000000003     37.167050000000003
C      39.652849999999994     36.236150000000009     37.206949999999999
C      39.789150000000006     37.666049999999998     37.063050000000004
C      38.265850000000000     35.833950000000002     37.081950000000006
C      38.642350000000008     38.718750000000000     37.020850000000003
C      36.178250000000006     39.070650000000001     37.530350000000006
C      37.074250000000006     36.713350000000005     37.327950000000001
C      37.285350000000001     38.186850000000007     37.405150000000006
C      33.338750000000005     41.785550000000001     38.418850000000006
C      34.311150000000005     34.265749999999997     36.693150000000003
C      32.694950000000006     38.735349999999997     38.866849999999999
H      43.933349999999997     38.348950000000002     37.261749999999999
H      42.890050000000002     35.099950000000007     36.411749999999998
H      36.259350000000005     33.008849999999995     37.311650000000000
H      35.606950000000005     42.437750000000008     37.870550000000009
H      40.307350000000000     34.320350000000005     36.967850000000006
H      41.596150000000009     38.843650000000011     36.737950000000005
H      38.690750000000001     33.822749999999999     37.213650000000001
H      38.507950000000008     41.963750000000005     37.595050000000001
H      39.855450000000005     40.542850000000001     36.809049999999999
H      33.590050000000005     36.996549999999999     37.090250000000005
H      32.470750000000002     41.094850000000008     37.794449999999998
H      34.220849999999999     33.296149999999997     36.447450000000003
H      33.459549999999993     34.882350000000002     36.507450000000006
H      32.373250000000006     38.228049999999996     38.030149999999999
H      32.919950000000000     37.850250000000003     39.588250000000002
H      32.066650000000003     39.499650000000003     39.334850000000003
O      33.485850000000006     42.991150000000005     38.529750000000007
O      43.636850000000003     37.653350000000003     36.523250000000004
