6

C      37.344749999999998     38.194199999999995     37.509900000000002
C      38.307550000000006     37.907199999999996     38.366700000000009
H      38.325450000000004     36.772100000000002     38.852000000000004
H      36.690050000000006     37.351700000000001     37.147999999999996
H      39.309949999999994     38.701199999999993     38.724500000000006
H      37.021650000000008     39.227899999999998     37.313600000000008
