18

C      37.734299999999990     38.637749999999997     37.925999999999995
C      36.448599999999999     38.758350000000007     38.390299999999996
C      36.123699999999985     37.853149999999999     39.483199999999997
C      36.993700000000004     36.893850000000000     39.948399999999999
C      38.303000000000011     36.804050000000004     39.445599999999999
C      38.703100000000006     37.995149999999995     38.730800000000002
C      37.770700000000005     39.289050000000003     36.489100000000001
C      40.147400000000005     38.127949999999998     38.055199999999999
H      35.954200000000000     39.539649999999995     37.625700000000002
H      35.053400000000011     37.751750000000001     39.799500000000002
H      36.385900000000007     35.899249999999995     40.433199999999999
H      38.760600000000011     35.806449999999998     39.795999999999999
H      37.426499999999990     40.193550000000002     36.371600000000001
H      38.811800000000005     39.409049999999993     35.938900000000004
H      40.207200000000000     38.947749999999999     37.267499999999998
H      40.881500000000003     37.245350000000002     37.718999999999994
H      40.946599999999989     38.116250000000008     38.920299999999990
H      37.276100000000000     38.729349999999997     35.566800000000001
