5

C      37.999504999999999     37.657449999999990     37.728250000000003
H      37.953595000000007     38.853549999999998     37.655280000000005
H      37.986115000000005     37.592550000000003     38.802630000000008
H      39.009095000000002     37.348250000000000     37.197369999999992
H      36.990904999999998     37.146450000000002     37.602930000000001
