5

C      37.769299999999987     38.029449999999997     37.942049999999995
H      38.715000000000003     37.599950000000007     38.149849999999994
H      37.734099999999998     38.801949999999991     39.075449999999996
H      37.284999999999997     37.198050000000009     37.491849999999999
H      37.848699999999994     38.545549999999992     36.924550000000004
