5

C      38.244399999999985     38.301099999999991     37.963549999999998
H      38.123899999999992     38.741800000000005     37.007550000000002
H      38.754599999999996     37.258199999999995     37.559250000000006
H      37.245400000000004     38.173200000000001     38.355750000000000
H      38.689299999999989     38.533999999999992     38.992449999999998
