35

C      39.752150000000000     38.982849999999999     38.726899999999993
C      40.238650000000007     37.823049999999995     39.216599999999993
C      35.450250000000004     36.649249999999995     37.778800000000004
C      35.774850000000008     35.583050000000000     38.710999999999999
C      38.353150000000007     39.063249999999996     38.196799999999996
C      39.398750000000007     36.571550000000002     39.416800000000009
C      36.657950000000007     37.440250000000006     37.473900000000000
C      36.966650000000008     35.576250000000002     39.361199999999990
C      37.713350000000013     37.648849999999996     38.222600000000000
C      38.050050000000006     36.469449999999995     39.119199999999999
C      40.551250000000003     40.108049999999992     38.172799999999988
C      42.029250000000012     39.925950000000000     38.120999999999988
C      42.552350000000011     38.655950000000004     38.588499999999989
C      41.698450000000008     37.758149999999986     39.270399999999995
C      34.316750000000006     36.697749999999999     37.064599999999999
C      33.392150000000008     35.924449999999993     37.762500000000003
C      33.947050000000011     34.666150000000002     38.353499999999997
C      37.741750000000003     40.257549999999995     37.606999999999999
C      40.089250000000007     41.276550000000000     37.603600000000000
C      38.708650000000006     41.309449999999998     37.598700000000008
H      39.267450000000004     35.826449999999994     40.316900000000004
H      37.447050000000011     34.878249999999994     40.216099999999997
H      42.867050000000013     40.850949999999997     38.119900000000001
H      43.707050000000002     38.534149999999997     38.853899999999996
H      42.121350000000014     36.859350000000006     39.874300000000005
H      32.292950000000005     35.917649999999995     37.742300000000000
H      33.357050000000001     33.746049999999997     38.506900000000002
H      36.864650000000005     40.315949999999987     36.931899999999999
H      40.685650000000003     42.195549999999997     36.996800000000007
H      38.364450000000012     42.253950000000003     37.126199999999997
H      34.198850000000007     38.658950000000004     36.246200000000002
H      36.344550000000005     37.709950000000006     35.683099999999996
N      35.085950000000004     34.501350000000002     38.960999999999999
O      33.847650000000009     37.629149999999996     36.128299999999996
O      36.618150000000007     38.342849999999999     36.323499999999996
