6

C      37.763699999999993     37.906069999999985     38.701399999999992
C      37.652900000000002     37.938829999999996     37.260199999999998
H      37.310400000000001     38.677090000000007     39.366900000000001
H      38.689599999999999     37.482560000000007     39.121000000000009
H      38.276499999999999     37.270889999999994     36.639800000000008
H      37.328099999999999     38.729110000000006     36.633099999999999
