46

C      36.248179999999991     38.260899999999992     39.495899999999992
C      35.478580000000001     37.572100000000006     38.494399999999999
C      39.719130000000014     37.926900000000003     35.886999999999993
C      38.660719000000007     37.199799999999996     34.983299999999993
C      37.628280000000011     38.654799999999994     39.007200000000005
C      36.138780000000004     36.634699999999995     37.542999999999999
C      39.227587000000014     38.477899999999991     37.143599999999999
C      37.655180000000009     36.642800000000008     35.645000000000003
C      37.975780000000007     38.188400000000001     37.709700000000005
C      37.160979999999995     37.263300000000001     36.852400000000003
C      35.604680000000009     38.981899999999996     40.590299999999999
C      34.190280000000008     39.089700000000008     40.758500000000005
C      33.466180000000001     38.322399999999988     39.714099999999995
C      34.129580000000011     37.745400000000004     38.655200000000001
C      40.994380000000014     38.162999999999997     35.404000000000003
C      41.494800000000012     37.579599999999999     34.184200000000004
C      40.449880000000022     37.362899999999996     33.185999999999993
C      39.176900000000003     36.977000000000004     33.658100000000005
C      36.430780000000006     39.507900000000006     41.722500000000004
C      35.624479999999998     39.879899999999992     42.956099999999999
C      34.355280000000000     40.428500000000000     42.678100000000001
C      33.577480000000001     40.017899999999997     41.687400000000004
C      38.273879999999998     39.453599999999994     39.978999999999999
C      37.816580000000009     39.680099999999996     41.389300000000006
C      35.657980000000002     35.319400000000002     37.179200000000002
C      42.978300000000011     37.546599999999998     33.864699999999999
C      40.177120000000009     39.347700000000003     37.956099999999999
H      42.994750000000010     37.160300000000007     32.795999999999992
H      37.094979999999993     35.810400000000001     35.120799999999996
H      32.416579999999996     38.224699999999999     40.055700000000002
H      33.186380000000007     37.223799999999997     38.108099999999993
H      41.810470000000016     38.796899999999994     36.095800000000004
H      40.612660000000012     37.067999999999998     32.132599999999996
H      38.367980000000003     36.834800000000001     32.886299999999999
H      36.214180000000006     39.974100000000007     43.867400000000004
H      34.006480000000003     41.420299999999997     43.076200000000000
H      32.497779999999999     40.215500000000006     41.419499999999999
H      39.240152000000009     39.795900000000003     39.716100000000004
H      38.307180000000002     40.540999999999997     41.850600000000000
H      36.445080000000011     34.579700000000003     36.722400000000000
H      43.532580000000010     38.460599999999999     33.892200000000003
H      43.583420000000011     36.971800000000002     34.463100000000004
H      41.065690000000011     39.029700000000005     37.717300000000002
H      39.846480000000007     40.363399999999999     37.789700000000003
H      40.392010000000006     38.803699999999992     38.947800000000001
O      34.517780000000009     34.956900000000005     37.507300000000001
