48

C      38.228299999999997     42.145199999999988     42.569139999999990
C      37.491200000000006     37.281100000000009     37.623140000000006
C      38.277700000000010     37.449700000000007     36.525580000000005
C      35.859300000000005     33.098800000000011     36.087990000000005
C      37.113600000000005     35.960500000000010     38.119540000000001
C      38.589500000000001     36.289500000000004     35.721260000000001
C      36.220500000000001     33.896300000000011     37.387940000000000
C      37.135800000000003     34.942500000000003     37.039380000000008
C      37.912800000000004     35.155600000000007     35.796079999999996
C      37.087799999999994     38.467600000000004     38.230440000000002
C      37.830800000000011     39.680500000000009     38.069040000000001
C      38.668199999999999     39.859900000000010     36.897599999999997
C      39.089700000000001     38.683599999999998     36.131739999999994
C      36.609400000000008     38.406700000000001     39.549040000000005
C      36.785300000000007     39.465299999999999     40.490040000000008
C      37.513900000000000     40.565899999999999     40.282740000000004
C      38.037600000000012     40.721299999999999     38.993539999999996
C      36.201600000000006     37.049100000000010     40.169039999999995
C      36.553100000000008     35.945000000000000     39.512140000000002
C      35.874000000000002     34.642900000000004     39.870140000000006
C      35.559000000000005     33.937099999999994     38.676540000000003
C      39.587899999999998     36.540500000000009     34.480829999999997
C      40.410300000000007     37.815400000000011     34.428970000000007
C      40.304700000000011     38.780799999999999     35.408479999999997
C      39.501600000000003     35.608000000000004     33.465240000000001
C      39.160499999999992     34.394600000000011     33.938290000000002
C      39.342800000000004     42.878500000000003     42.734339999999989
H      38.301099999999998     41.149000000000001     43.264640000000000
H      37.268899999999995     42.706699999999998     42.894239999999996
H      36.407700000000006     33.834700000000005     35.492490000000004
H      39.883400000000009     36.901800000000009     32.254680000000000
H      38.858600000000010     40.824799999999996     36.474379999999996
H      36.276300000000006     39.244300000000010     41.438940000000002
H      38.414100000000005     41.738999999999990     38.786240000000006
H      35.695100000000004     37.103800000000007     41.133539999999996
H      34.781300000000002     33.258400000000002     35.903959999999998
H      35.370800000000003     34.719199999999994     40.755040000000008
H      35.825600000000001     31.945600000000002     36.091149999999999
H      34.985600000000005     33.018999999999998     39.029040000000009
H      41.218699999999998     37.605800000000002     33.928210000000000
H      40.863200000000006     39.670600000000007     35.324550000000002
H      39.751200000000011     33.902600000000000     33.048850000000002
H      39.831500000000005     42.761600000000001     43.769940000000005
H      39.803699999999999     43.424800000000005     41.907539999999997
H      39.363100000000003     44.054400000000001     43.477239999999995
N      38.453499999999998     34.114200000000011     35.047680000000000
O      39.956299999999999     35.980100000000007     32.230059999999995
O      37.671300000000002     41.577800000000011     41.132239999999996
