38

C      37.396499999999996     38.322749999999985     37.819294999999983
C      37.392900000000004     39.484649999999988     36.953294999999997
C      41.586700000000000     39.221850000000003     39.205494999999999
C      38.322599999999994     37.725949999999983     38.757795000000002
C      38.707900000000002     40.126850000000005     37.051495000000003
C      40.690699999999993     38.067350000000005     39.654001000000008
C      40.969999999999992     40.125550000000004     38.314395000000005
C      39.509299999999996     38.352249999999998     38.764595000000000
C      39.664000000000001     39.566549999999978     37.964694999999992
C      35.981900000000003     37.868349999999992     37.966594999999998
C      35.086199999999998     38.091250000000002     36.899995000000004
C      35.414400000000001     39.204350000000005     35.934794999999994
C      35.695200000000000     37.016349999999989     39.060594999999978
C      34.351099999999995     36.446349999999995     39.007294999999999
C      33.472799999999999     36.792549999999991     37.977095000000006
C      33.777999999999999     37.610849999999999     36.811894999999993
C      36.852499999999999     36.543849999999992     40.069085999999999
C      38.125799999999991     36.555349999999990     39.714792000000003
C      39.208600000000004     35.781549999999996     40.401341000000002
C      41.360100000000003     36.877549999999999     39.904392999999999
C      40.559499999999993     35.854249999999993     40.555635000000009
C      42.890300000000003     39.697249999999997     39.858026999999993
H      41.235700000000001     41.166250000000005     38.150594999999981
H      35.023699999999998     39.019749999999988     35.036895000000001
H      32.430700000000002     36.477849999999989     38.160194999999987
H      32.989899999999999     37.725049999999996     36.045095000000003
H      36.441199999999995     36.027749999999997     40.963104999999999
H      38.934200000000004     34.833749999999995     40.953845000000001
H      42.487099999999998     37.028649999999999     40.238721999999996
H      34.528399999999998     36.337350000000001     40.849814999999992
H      38.335900000000002     41.156149999999997     35.417394999999999
H      41.286399999999993     34.948149999999998     40.662295000000000
H      43.233899999999998     38.817949999999996     40.493093999999999
H      43.569299999999998     39.873949999999979     39.024195000000006
H      42.906399999999991     40.659149999999983     40.390303000000003
N      36.594600000000000     39.754649999999998     35.983294999999998
O      33.771100000000004     36.021850000000001     40.180742000000009
O      39.040899999999993     40.805250000000001     35.917595000000006
