5

C      38.039699999999996     38.268549999999991     37.737199999999994
H      39.019400000000005     38.646450000000002     37.226500000000001
H      36.980599999999995     38.631949999999996     37.846199999999996
H      37.883700000000005     37.953350000000000     38.865499999999997
H      37.978100000000012     37.353549999999998     37.134500000000003
