5

C      37.971699999999991     37.599000000000004     38.111149999999995
H      37.613599999999991     37.528900000000014     37.063650000000003
H      38.288100000000000     38.696100000000001     38.197050000000004
H      37.092900000000000     37.379300000000008     38.936349999999997
H      38.907100000000000     37.303899999999999     38.575650000000003
