57

C      40.704399999999993     36.282349999999994     40.569234999999999
C      37.425000000000004     36.276249999999990     44.096925000000006
C      39.818899999999999     38.401049999999998     33.175815000000021
C      36.430199999999999     36.805650000000000     43.318195000000010
C      40.885999999999996     37.794950000000000     33.938215000000000
C      38.800500000000000     36.269549999999988     43.896525000000011
C      39.040299999999995     39.222550000000005     33.879415000000016
C      36.932700000000004     37.172550000000001     41.943045000000005
C      40.715699999999998     37.498950000000001     35.366115000000022
C      37.465899999999998     39.095050000000001     35.968315000000004
C      40.232399999999998     36.703949999999992     38.294094999999999
C      37.493099999999998     37.835549999999998     39.254655000000007
C      39.227899999999998     36.340550000000000     42.452945000000007
C      38.812400000000004     38.850850000000001     35.287615000000002
C      39.826299999999996     36.864150000000002     39.714694999999999
C      38.247099999999996     38.099249999999998     37.956532000000010
C      38.204999999999998     36.831350000000000     41.487954999999999
C      39.631299999999996     37.954749999999997     36.123815000000015
C      38.509899999999995     37.433049999999994     40.130975000000007
C      39.550199999999997     37.686450000000001     37.532183000000011
C      35.862299999999998     37.735250000000001     41.067815000000003
C      36.130199999999995     38.072749999999992     39.760505000000009
C      41.574300000000001     36.496649999999988     36.129215000000009
C      41.694800000000001     36.559950000000001     37.685900000000004
C      35.088999999999999     36.975449999999995     44.060345000000005
C      33.805799999999998     36.267550000000000     41.618715000000009
C      34.413499999999999     37.399949999999997     41.079155000000000
C      39.964500000000001     39.006149999999998     31.699314999999999
C      42.266799999999989     37.639550000000000     33.478915000000015
C      34.175899999999999     36.035649999999997     44.418095000000008
C      37.228400000000001     38.922550000000001     37.249315000000003
C      33.401600000000002     38.475349999999999     40.461085000000011
H      41.561699999999995     35.704850000000000     40.255415000000006
H      37.221499999999999     35.839149999999997     45.137045000000008
H      39.567100000000003     35.975149999999999     44.631725000000010
H      39.843899999999998     35.460949999999997     37.857429000000010
H      35.366800000000005     38.684249999999999     39.220285000000011
H      41.108499999999999     35.404449999999997     35.956315000000004
H      42.525899999999993     36.762349999999998     35.683814999999996
H      42.328399999999995     35.670349999999999     38.113376000000009
H      42.190100000000001     37.538950000000000     37.737759000000011
H      35.555599999999998     37.747549999999997     44.895155000000003
H      33.039000000000001     39.042649999999995     41.319585000000004
H      34.027900000000002     35.236350000000002     41.718875000000004
H      40.984399999999994     39.404549999999993     32.055915000000013
H      38.082200000000000     41.163049999999998     33.713715000000022
H      33.609400000000001     34.836950000000002     44.097284999999999
H      33.415300000000002     36.392150000000001     45.234785000000009
H      36.266700000000000     39.255749999999999     37.938863000000005
H      36.606699999999996     39.398949999999992     35.507415000000016
H      32.601999999999997     36.436949999999996     41.637875000000008
H      32.888800000000003     38.029849999999989     39.440245000000012
H      33.989399999999996     39.028549999999996     39.687405000000012
N      40.390599999999999     36.044449999999991     41.887465000000006
O      39.339500000000001     39.492049999999992     30.765214999999991
O      43.398000000000003     37.497450000000001     33.172415000000022
O      38.857599999999998     40.565149999999996     33.544915000000024
