57

C      36.756049999999988     36.837749999999993     33.388749999999995
C      38.427149999999997     37.155450000000002     39.238650000000007
C      37.227350000000001     37.287550000000003     38.561050000000009
C      40.146749999999997     36.068049999999999     34.871350000000000
C      39.454749999999990     36.325549999999993     38.697950000000006
C      37.141649999999998     36.775149999999996     37.139850000000003
C      40.600849999999994     36.546050000000001     36.254950000000008
C      38.729449999999986     36.055750000000003     34.944550000000007
C      39.448149999999984     36.342750000000002     37.198550000000004
C      38.288950000000000     36.299950000000003     36.356649999999995
C      38.362250000000003     37.661950000000004     40.597550000000005
C      37.278149999999997     38.151049999999991     41.217050000000000
C      35.979950000000002     38.075350000000000     40.525450000000006
C      35.886550000000000     37.650750000000002     39.169550000000001
C      39.779150000000001     37.646049999999995     41.033349999999992
C      40.084149999999994     38.637349999999998     42.108850000000004
C      39.088650000000001     39.493049999999997     42.547649999999997
C      37.785550000000001     39.120550000000001     42.247250000000001
C      40.963549999999998     37.512550000000005     40.130450000000003
C      40.780450000000002     36.625050000000002     39.186249999999994
C      34.805349999999990     38.679949999999998     41.192750000000004
C      33.543849999999992     38.193750000000001     41.116950000000003
C      34.681649999999991     37.607950000000002     38.417550000000006
C      35.897649999999985     36.457650000000001     36.435450000000003
C      34.793650000000000     36.873849999999997     37.268950000000004
C      41.913349999999994     36.075550000000000     38.324649999999998
C      42.033749999999984     36.471750000000000     36.817649999999993
C      36.436250000000001     39.448349999999998     42.883049999999997
C      35.267349999999993     39.887550000000005     41.980650000000004
C      41.515349999999984     38.972850000000001     42.392850000000003
C      42.572549999999993     38.949349999999995     41.496150000000000
C      42.381749999999997     37.829350000000005     40.455250000000007
C      37.955649999999991     35.970650000000006     33.617050000000006
H      36.798149999999993     37.949149999999996     33.817249999999994
H      36.902749999999997     37.257249999999999     32.364849999999997
H      35.943349999999995     36.201450000000001     33.713550000000005
H      40.961849999999998     35.893250000000002     34.116950000000003
H      35.786050000000003     35.385649999999998     35.696850000000005
H      33.806049999999999     36.406949999999995     36.650249999999993
H      33.735349999999997     37.943750000000001     38.615050000000004
H      42.963349999999991     35.968850000000003     38.814450000000008
H      41.549149999999997     35.008349999999993     38.454750000000004
H      42.861149999999995     35.468150000000001     36.612050000000004
H      42.464649999999992     37.498949999999994     36.517949999999999
H      36.061049999999994     38.477150000000002     43.618650000000002
H      36.689349999999990     40.327949999999994     43.635150000000003
H      34.527549999999991     40.494349999999997     42.611650000000004
H      35.669049999999999     40.776850000000003     41.365249999999996
H      41.696550000000002     39.559350000000002     43.309550000000002
H      43.557249999999996     39.359750000000005     41.778250000000000
H      42.757349999999988     37.020750000000007     40.993950000000005
H      42.958950000000002     38.201149999999991     39.508350000000000
H      38.582149999999984     41.148249999999997     43.455550000000002
H      38.740649999999988     36.425449999999998     33.089350000000003
H      37.537949999999995     34.851750000000003     33.656249999999993
N      32.442750000000004     37.709850000000003     41.122250000000001
O      39.441549999999992     40.665350000000004     43.212950000000006
