5

C      38.012149999999991     37.924299999999995     37.613799999999998
H      37.232150000000004     37.396400000000000     38.323299999999996
H      37.643050000000002     38.853200000000001     37.466900000000003
H      38.319749999999999     38.417700000000004     38.533099999999997
H      38.767849999999996     37.146799999999999     37.481000000000009
