17

C      38.676849999999988     38.270049999999998     37.665749999999989
C      38.638050000000007     38.168149999999997     39.103149999999999
C      37.489649999999997     37.672449999999998     39.693149999999989
C      36.624549999999999     36.902749999999997     38.714449999999985
C      36.688850000000002     37.157449999999997     37.452349999999996
C      37.604250000000008     37.862349999999992     36.795749999999998
C      39.606449999999995     39.103149999999999     36.822149999999993
H      38.314750000000004     37.507249999999999     35.198750000000004
H      39.209249999999997     39.003450000000001     39.859949999999998
H      37.406549999999996     37.856449999999995     40.801249999999996
H      36.126149999999996     36.401150000000001     39.751049999999992
H      35.573449999999994     36.042950000000005     36.259550000000004
H      39.088049999999996     39.957049999999995     36.371349999999993
H      40.132350000000002     39.912649999999999     37.452749999999995
H      40.426550000000006     38.196449999999999     36.584750000000000
O      35.641350000000003     36.804150000000007     36.643649999999994
O      37.562749999999994     38.101749999999996     35.416349999999994
