17

C      38.429499999999990     37.157449999999997     37.371949999999998
C      37.557200000000002     37.629350000000009     38.623149999999995
C      36.727499999999999     39.646649999999994     37.674050000000008
C      37.937600000000003     35.949750000000002     36.678650000000005
C      37.917099999999991     37.331249999999997     39.787849999999992
C      36.520000000000003     38.242750000000008     38.431550000000001
C      39.667799999999993     37.608849999999997     37.627849999999995
H      37.195500000000003     39.377050000000004     36.715350000000001
H      35.691200000000002     39.997350000000004     37.913750000000007
H      36.791999999999994     35.669250000000005     36.782250000000005
H      35.401299999999999     37.941350000000007     38.419950000000000
H      36.946800000000003     37.326049999999995     40.292349999999999
H      38.903500000000001     36.648550000000007     39.848349999999996
H      37.264299999999999     40.480249999999998     38.235650000000007
H      40.598700000000001     37.308349999999997     37.127350000000007
H      39.995300000000000     38.263050000000007     38.610849999999999
O      38.468199999999996     35.519750000000002     35.707650000000001
