5

C      37.553749999999994     38.535131000000000     38.228650000000002
C      38.650950000000009     38.042691000000005     37.785750000000007
H      38.632850000000005     37.022419000000006     37.281649999999999
H      39.472250000000003     38.762830999999998     37.452850000000012
O      36.527749999999997     38.977580999999994     38.718350000000001
