58

C      42.293680000000009     37.778549999999996     35.998249999999999
C      36.747320000000002     37.220649999999992     38.747250000000008
C      35.821620000000017     38.115849999999995     39.215950000000007
C      37.329320000000024     39.517350000000008     34.432350000000000
C      36.072220000000002     40.045949999999991     34.891649999999998
C      37.621920000000017     37.451549999999997     37.510950000000008
C      35.395320000000012     39.211549999999988     38.392350000000008
C      37.440320000000000     38.275549999999996     35.196050000000000
C      37.362420000000000     38.519450000000006     36.684449999999998
C      36.251720000000006     39.364550000000008     37.180049999999994
C      37.164720000000003     36.144250000000000     39.557549999999992
C      36.450120000000013     36.097650000000002     40.925750000000008
C      35.592920000000007     37.049549999999996     41.508949999999999
C      35.153420000000018     38.121849999999995     40.624150000000000
C      38.495620000000002     40.518949999999990     34.363150000000005
C      37.959320000000005     41.798550000000006     33.728149999999999
C      36.626720000000006     41.647649999999999     33.162750000000003
C      35.718020000000017     40.812049999999999     33.742649999999998
C      38.062620000000010     35.075150000000008     39.191549999999992
C      38.482620000000011     33.969349999999991     39.984250000000003
C      38.026820000000001     34.220349999999996     41.333250000000007
C      37.082220000000007     35.148350000000008     41.811650000000000
C      38.514020000000002     36.306449999999998     37.011550000000000
C      38.747620000000012     35.219449999999995     37.909549999999996
C      34.127620000000000     39.760649999999998     38.566049999999990
C      33.650020000000012     39.682249999999996     39.897050000000007
C      34.283619999999999     39.141450000000006     41.026750000000007
C      37.309520000000020     36.847949999999997     34.641649999999998
C      40.586820000000003     39.129149999999996     34.565049999999999
C      39.848223000000004     40.422249999999991     34.447749999999999
C      41.847350000000006     38.894350000000003     35.141750000000002
C      41.599210000000014     38.696950000000001     38.334450000000004
C      41.478580000000008     37.728249999999989     37.392150000000001
H      42.149100000000004     36.844350000000006     35.516050000000007
H      43.472679999999997     38.031849999999991     36.165549999999996
H      38.718220000000002     42.561949999999996     33.263149999999996
H      36.108420000000010     42.286649999999995     32.498649999999998
H      34.752220000000008     41.129649999999998     33.440849999999998
H      39.579055000000011     33.678049999999999     39.887150000000005
H      38.399820000000005     33.438050000000004     42.036149999999992
H      36.777220000000014     34.928849999999997     42.861949999999993
H      39.444708000000006     34.333650000000006     37.755449999999996
H      39.089964000000009     36.461849999999998     36.189349999999990
H      33.630320000000012     40.158749999999998     37.661649999999995
H      32.527320000000003     39.703749999999999     39.739050000000006
H      33.832220000000007     39.136250000000004     42.131649999999993
H      38.412620000000004     36.822150000000008     34.264949999999999
H      40.146460000000005     38.061750000000004     34.535349999999994
H      36.738720000000015     35.933849999999993     34.944649999999996
H      40.264160000000004     41.422550000000001     34.448050000000009
H      35.489720000000013     38.577449999999999     43.501350000000002
H      37.019020000000026     36.859049999999996     33.505949999999999
H      42.433710000000005     39.762450000000001     34.818049999999999
H      42.372990000000016     39.595349999999996     38.276650000000004
H      40.707830000000016     36.822850000000003     37.096249999999998
H      41.118549999999999     38.873750000000001     39.362750000000005
N      35.699520000000014     39.846350000000001     36.164050000000003
S      35.005820000000000     37.399450000000002     43.312750000000008
