8

C      38.690549999999988     37.978250000000003     38.244850000000000
C      37.484449999999995     37.564650000000000     37.417650000000009
H      39.478849999999994     37.745250000000013     37.483150000000009
H      38.530149999999992     39.234150000000000     38.114249999999998
H      38.744349999999983     37.663550000000001     39.399550000000005
H      37.627449999999996     36.765850000000000     36.600449999999995
H      37.026849999999982     38.541150000000002     37.454549999999998
H      36.521150000000006     37.127050000000011     38.108050000000006
