8

C      37.672199999999989     37.919649999999997     38.774050000000003
C      38.455800000000011     38.043349999999997     37.405749999999998
H      38.273399999999995     37.195049999999995     39.391049999999993
H      37.380200000000002     38.757850000000005     39.365750000000006
H      37.519599999999997     37.772449999999999     36.608950000000007
H      36.703299999999999     37.313550000000006     38.605950000000007
H      39.296700000000001     38.804950000000005     37.329250000000002
H      39.194699999999997     37.279750000000007     37.375649999999993
