5

C      38.123454999999993     37.991349999999997     38.197949999999999
H      37.376064999999997     38.446350000000010     37.213450000000009
H      38.623935000000003     37.878950000000003     37.089150000000004
H      38.448794999999990     38.872250000000008     38.659649999999999
H      37.948944999999995     37.127749999999992     38.910849999999996
