18

C      39.143699999999995     38.401499999999999     35.437899999999999
C      37.987900000000003     38.341300000000004     40.363799999999998
C      37.166000000000004     37.602599999999995     39.536900000000003
C      40.088200000000008     38.968900000000005     37.405000000000001
C      37.906299999999995     38.031800000000004     35.907899999999998
C      39.073200000000007     38.743300000000005     39.709100000000007
C      37.214999999999996     37.343100000000007     38.198800000000006
C      39.163299999999992     38.679699999999997     38.312799999999996
C      38.092300000000002     37.950000000000003     37.270200000000003
H      35.011699999999998     36.922899999999998     38.360799999999998
H      39.563399999999987     38.739199999999997     34.447800000000001
H      37.535299999999999     38.366500000000002     41.552199999999999
H      36.048899999999996     37.557100000000005     40.113700000000009
H      40.988300000000002     39.529600000000002     37.567999999999998
H      36.951100000000004     37.754700000000000     35.478400000000008
H      39.585200000000000     39.606899999999996     40.204400000000007
N      40.128300000000003     38.994700000000009     36.046999999999997
S      35.810599999999994     36.393100000000004     37.514600000000002
