118

C      48.977989999999991     33.998719999999999     39.913299999999992
C      48.247219999999999     34.619660000000003     41.075899999999997
C      48.495850000000004     34.203779999999995     42.352499999999992
C      50.273250000000004     32.996420000000001     41.660800000000002
C      50.173749999999998     33.397750000000002     40.341899999999995
C      51.281850000000006     33.343950000000007     39.212399999999995
C      48.679699999999997     34.005800000000008     38.348999999999997
C      45.969940000000008     34.957510000000006     40.702399999999997
C      38.503750000000011     41.909369999999996     36.282199999999996
C      28.180849999999996     41.337069999999997     36.423299999999998
C      37.430749999999996     41.846270000000004     35.297400000000003
C      29.306850000000015     41.965869999999995     35.526199999999996
C      38.412549999999996     41.274270000000001     37.574599999999997
C      28.524450000000009     41.155070000000002     37.752299999999998
C      36.098850000000013     41.528770000000002     35.899899999999995
C      30.458249999999996     42.433970000000002     36.166300000000000
C      36.947750000000013     39.890870000000007     39.229899999999986
C      35.703950000000006     39.857970000000002     39.755699999999990
C      30.622950000000007     40.234869999999994     39.078200000000002
C      33.080150000000003     39.523170000000000     39.393799999999999
C      33.542549999999991     41.237269999999995     36.910899999999998
C      37.176449999999996     40.636869999999995     38.005099999999992
C      29.937149999999995     40.945270000000008     38.035899999999998
C      34.522250000000014     40.018669999999993     38.912399999999998
C      31.995950000000004     40.340269999999997     38.874699999999997
C      35.974650000000011     40.894569999999995     37.182299999999998
C      30.957250000000009     41.369170000000004     37.064000000000000
C      34.622350000000004     40.672070000000005     37.687199999999997
C      32.244050000000016     41.129869999999997     37.611699999999999
C      34.947550000000007     41.237970000000004     34.976799999999997
C      33.682850000000002     41.405969999999996     35.552199999999992
C      39.707354000000002     41.759670000000000     35.410400000000003
C      39.938233999999994     42.042070000000002     34.114199999999997
C      38.781749999999995     42.151770000000006     33.223199999999999
C      37.656850000000006     41.613570000000003     33.849400000000003
C      36.477250000000005     41.313870000000001     33.003900000000002
C      35.157650000000004     41.188370000000006     33.520400000000002
C      26.890450000000001     40.910170000000001     35.802699999999994
C      26.552249999999997     41.360669999999999     34.556699999999999
C      27.555750000000003     42.166070000000005     33.926999999999992
C      28.788250000000001     42.553069999999998     34.268899999999995
C      39.534092000000001     41.346770000000006     38.487499999999997
C      42.205309999999997     41.632169999999995     36.142599999999995
C      40.978320000000004     41.037170000000003     35.889999999999993
C      27.532550000000015     40.928070000000005     38.913799999999995
C      25.993850000000002     38.704650000000001     36.726199999999999
C      25.821449999999984     39.966970000000003     36.235300000000002
C      43.702990000000000     37.780250000000002     39.629100000000001
C      43.406010000000009     39.082310000000000     40.164799999999993
C      47.276160000000004     35.753219999999999     40.960699999999989
C      44.949780000000004     37.186569999999996     39.922599999999989
C      44.163139999999999     39.625370000000004     41.275700000000001
C      47.169309999999996     37.138120000000001     40.787299999999995
C      45.842529999999996     37.893899999999995     40.895099999999992
C      45.620850000000004     39.196240000000003     41.315099999999994
C      42.657440000000001     37.367959999999997     38.626600000000003
C      41.398380000000003     37.845650000000006     38.421199999999999
C      41.437359999999998     39.251700000000000     38.844699999999996
C      42.280329999999999     39.894570000000002     39.796500000000002
C      45.411119999999997     35.846210000000006     39.471100000000000
C      43.209609999999998     36.194910000000000     37.834200000000003
C      43.811949999999996     40.833669999999998     42.017199999999995
C      42.753169999999997     41.581170000000000     41.364299999999993
C      41.888800000000003     41.207370000000004     40.386400000000002
C      44.399709999999999     41.524570000000004     43.221399999999988
C      42.437640000000002     43.119870000000006     41.896799999999999
H      49.530650000000009     33.461280000000002     37.712799999999994
H      46.182670000000002     36.075030000000005     38.692599999999999
H      51.473050000000001     34.302009999999996     38.595700000000001
H      48.146290000000008     34.730090000000004     44.120599999999996
H      48.633570000000006     35.022840000000002     38.229099999999995
H      51.013249999999999     32.234930000000006     41.854599999999998
H      47.635090000000005     33.884300000000003     37.992100000000001
H      45.295370000000005     34.802340000000001     41.597799999999999
H      30.795650000000002     43.497670000000006     36.125899999999994
H      37.792850000000016     40.084870000000002     39.971499999999999
H      35.437550000000002     40.025969999999994     40.823799999999999
H      30.051949999999998     39.655970000000003     39.909999999999989
H      32.832949999999997     41.505669999999995     34.987499999999997
H      41.065100000000001     42.125470000000007     33.876199999999997
H      38.488150000000005     42.874670000000002     32.261799999999994
H      36.553249999999998     40.984369999999998     31.879400000000000
H      34.322750000000013     40.740970000000004     33.114699999999999
H      25.697450000000003     41.278269999999999     34.029899999999998
H      26.982149999999994     42.312570000000001     32.906699999999994
H      29.556050000000006     43.044570000000007     33.648299999999999
H      40.262159999999994     42.160770000000007     38.166400000000003
H      38.993249999999989     41.322570000000006     39.451799999999999
H      43.234729999999999     41.070470000000000     36.339900000000000
H      42.308539999999994     42.669069999999998     36.026100000000000
H      40.745140000000006     39.925570000000008     35.871900000000004
H      27.482150000000008     41.834470000000003     39.446300000000001
H      26.427650000000000     40.967170000000003     38.501700000000000
H      26.967549999999989     38.249300000000005     36.808000000000000
H      27.760149999999996     40.083670000000005     39.637999999999998
H      24.756650000000000     40.307670000000002     35.935899999999997
H      42.877750000000006     35.437230000000000     38.547800000000002
H      44.208790000000008     36.390590000000003     37.353400000000001
H      24.137450000000001     38.830470000000005     37.072499999999991
H      46.073059999999998     33.776899999999998     40.381099999999996
H      48.206260000000000     37.672960000000003     40.791599999999995
H      40.716870000000000     37.594940000000008     37.658499999999997
H      44.816290000000009     35.209319999999998     38.865899999999996
H      42.637140000000002     36.369619999999998     36.807600000000001
H      46.344750000000005     39.418109999999999     42.002600000000001
H      40.981949999999998     41.622470000000007     40.300599999999996
H      44.648220000000009     42.888670000000005     42.999999999999993
H      45.233350000000002     40.863570000000003     43.495699999999999
H      43.533090000000001     41.843070000000004     43.859200000000001
H      42.949809999999999     43.346869999999996     42.813600000000001
H      41.372150000000005     43.252470000000002     42.094999999999999
H      43.010360000000006     43.765069999999994     41.439999999999998
N      49.524449999999987     33.516950000000001     42.641599999999990
O      51.862549999999999     32.363850000000006     38.930199999999999
O      47.740470000000002     34.667449999999995     43.348099999999995
O      32.668250000000008     38.728100000000005     40.201400000000000
O      24.846650000000004     38.055850000000007     37.175099999999993
O      40.384509999999999     39.850570000000005     38.433299999999988
