42

C      39.515549999999990     38.044249999999998     37.664000000000001
C      39.705749999999995     39.156950000000002     38.459100000000007
C      37.644649999999999     34.233550000000001     43.150199999999998
C      39.215349999999994     36.778450000000007     38.078800000000008
C      39.178649999999998     39.254150000000003     39.811100000000010
C      38.703150000000001     34.252850000000002     42.398400000000009
C      38.465749999999993     35.364350000000002     39.942900000000009
C      38.213949999999997     37.773750000000007     41.680600000000005
C      38.878050000000002     36.658150000000006     39.512100000000011
C      38.618349999999992     37.972149999999999     40.235599999999998
C      38.356949999999991     35.234750000000005     41.329100000000004
C      37.945149999999991     36.413350000000008     42.098599999999998
C      39.357349999999997     38.178950000000000     36.188900000000011
C      39.435249999999996     39.405949999999997     35.509500000000010
C      39.508449999999996     40.709050000000005     36.314200000000007
C      39.599049999999998     40.417850000000001     37.574400000000011
C      39.218550000000000     37.015750000000004     35.293000000000006
C      38.960949999999997     37.212350000000001     33.838500000000010
C      38.881549999999997     38.581949999999999     33.443500000000007
C      39.078350000000000     39.716050000000003     34.177400000000006
C      39.185150000000000     35.681750000000008     35.915400000000005
C      38.815849999999998     35.538649999999997     37.347200000000008
C      38.968849999999996     34.241350000000004     37.949600000000004
C      38.824950000000001     34.087750000000000     39.282800000000009
C      38.852449999999997     36.046650000000000     33.015100000000011
H      39.604050000000001     33.572250000000004     42.301000000000009
H      37.815049999999999     36.327350000000003     43.248000000000005
H      37.986249999999998     38.621350000000007     42.153100000000002
H      39.626749999999994     41.384150000000005     38.136300000000006
H      38.388750000000002     38.560749999999992     32.445799999999998
H      38.762349999999998     41.010650000000005     34.228300000000011
H      39.148850000000003     34.880150000000000     35.281900000000007
H      39.446150000000003     33.456350000000000     37.374700000000011
H      39.291550000000001     33.238750000000003     39.862500000000011
H      38.363750000000003     36.050149999999995     31.927799999999998
H      40.175150000000002     42.761249999999997     36.058100000000010
H      39.612149999999993     41.027249999999995     39.653700000000008
H      35.824849999999998     34.477050000000006     44.072200000000002
N      36.700150000000001     33.997050000000002     43.921599999999998
O      39.317849999999993     34.933050000000009     33.269600000000011
O      39.671249999999993     41.950649999999996     35.683800000000005
O      39.253850000000000     40.379950000000008     40.485700000000008
