50

C      37.696944999999999     36.806149999999995     37.322999999999993
C      39.105944999999991     37.172350000000002     37.544399999999996
C      36.662344999999988     40.818150000000003     39.687099999999987
C      38.090244999999996     40.735250000000001     40.452799999999996
C      36.657444999999996     37.640250000000002     37.664800000000000
C      39.598144999999988     38.181150000000002     38.491799999999998
C      36.316944999999990     39.763349999999996     38.866799999999998
C      38.517544999999998     39.655349999999991     40.346800000000002
C      37.132044999999991     38.566649999999996     38.664299999999997
C      38.460744999999989     38.728549999999991     39.079799999999992
C      37.408544999999989     35.453250000000004     36.684899999999999
C      38.477044999999990     34.752949999999998     35.951200000000000
C      39.757544999999993     34.952050000000000     36.663399999999996
C      40.104544999999987     36.343149999999994     36.823200000000000
C      35.649644999999992     41.837650000000004     40.084999999999994
C      36.032044999999997     42.720050000000001     41.100699999999989
C      37.357945000000001     42.741249999999994     41.623999999999995
C      38.243044999999995     41.742650000000005     41.334999999999994
C      36.048944999999989     35.199750000000002     36.405699999999996
C      35.596544999999992     34.009149999999991     35.704699999999988
C      36.680944999999994     33.347050000000003     35.062299999999993
C      38.000244999999993     33.807250000000003     35.089599999999990
C      34.965844999999987     36.177150000000005     36.712199999999996
C      35.213544999999996     37.326349999999998     37.383799999999994
C      40.529724000000002     33.770450000000004     37.105300000000000
C      41.811955000000012     33.097949999999997     36.423599999999993
C      38.979744999999994     32.731349999999999     34.353600000000000
C      34.101044999999999     33.837250000000004     35.879899999999992
H      42.605055000000007     33.886949999999999     35.922100000000000
H      40.513036100000008     38.455950000000001     38.794499999999999
H      35.298644999999993     39.344750000000005     38.340899999999991
H      41.154938999999999     36.680850000000000     36.809699999999992
H      34.825144999999992     41.835149999999999     39.497099999999989
H      35.057744999999997     43.273850000000003     41.449699999999993
H      39.286445000000001     42.054050000000004     41.801900000000003
H      36.336945000000000     32.414250000000003     34.567599999999999
H      33.961144999999988     35.824050000000000     36.565299999999993
H      42.446785000000006     32.539950000000005     37.128000000000000
H      41.164507999999998     32.310150000000000     35.827499999999986
H      38.472844999999992     44.335949999999997     42.402900000000002
H      33.541944999999998     37.226750000000003     38.447199999999995
H      39.118344999999991     31.664050000000003     34.919699999999992
H      38.100544999999997     32.444749999999999     33.597099999999998
H      39.969944999999996     33.191350000000000     33.852599999999995
H      33.685644999999994     34.748750000000001     35.337099999999992
H      33.394944999999993     33.721850000000003     36.657899999999998
H      33.969544999999997     32.855549999999994     35.226599999999991
O      39.960044999999994     33.501049999999999     38.099199999999996
O      37.662044999999992     43.960850000000001     42.085200000000000
O      34.070844999999991     37.923250000000003     37.866199999999992
