6

C      37.961149999999989     38.242074999999993     37.292699999999989
C      38.168050000000001     37.950694999999996     38.474899999999991
H      37.030850000000001     38.760815000000001     36.876100000000001
H      38.416849999999990     37.571174999999997     36.550300000000000
H      38.969149999999999     37.239184999999999     38.579900000000002
H      37.903949999999995     38.369124999999997     39.449700000000000
