55

C      39.491349999999990     38.153254999999994     36.544004999999984
C      35.099050000000005     40.339954999999996     41.677675000000008
C      38.482150000000004     37.193154999999990     36.957604999999987
C      34.752650000000003     39.024355000000000     41.330645000000004
C      36.379350000000002     40.968097000000000     41.758025000000004
C      36.497450000000001     36.518754999999999     38.697604999999996
C      38.529449999999997     40.928528000000000     38.713104999999985
C      35.577349999999996     37.157955000000001     39.677291699999998
C      38.020849999999996     41.246417000000001     39.974176999999997
C      37.475949999999997     37.456254999999999     38.147404999999992
C      38.495350000000002     39.618354999999994     38.166104999999988
C      35.674350000000004     38.478554999999993     40.290340000000000
C      37.223250000000007     40.370554999999996     40.599463000000000
C      37.640249999999995     38.755555000000001     38.740304999999992
C      36.930949999999996     39.154054999999993     39.980421000000007
C      40.204049999999995     37.728054999999998     35.417704999999984
C      39.891249999999999     36.442954999999991     34.682804999999988
C      39.060749999999999     35.513354999999990     35.324504999999988
C      38.414950000000005     35.949854999999999     36.526004999999984
C      37.439249999999994     34.932454999999990     37.319404999999989
C      36.494050000000001     35.125055000000003     38.405404999999988
C      33.952550000000002     40.901666000000006     42.196604999999991
C      32.714750000000002     40.103155000000001     42.085234999999997
C      32.310149999999993     38.700454999999991     42.105035000000001
C      33.607050000000001     38.136454999999998     41.656925000000001
C      33.945450000000001     36.804554999999993     41.365595000000013
C      34.608150000000002     36.210354999999993     40.276044999999996
C      39.443550000000002     41.899195000000006     38.074904999999987
C      39.803349999999995     41.804095000000004     36.569004999999990
C      40.079049999999988     40.484741400000004     36.393404999999987
C      37.591350000000006     33.714654999999993     36.749604999999988
C      41.119249999999994     35.849554999999995     34.037004999999994
C      42.585650000000001     35.779954999999994     34.718904999999992
C      43.470349999999996     36.566254999999998     35.078704999999985
H      36.944450000000003     41.392667000000003     42.648295000000005
H      41.083149999999996     38.195155000000000     34.893104999999991
H      38.733050000000006     34.631954999999991     34.692304999999990
H      35.598250000000007     34.373954999999995     38.849804999999989
H      33.926149999999993     41.939625000000007     42.434754999999996
H      31.974149999999995     40.759801000000003     42.130555000000001
H      31.530649999999994     38.295154999999994     42.452465000000004
H      33.348549999999996     35.885755000000003     41.696475000000007
H      34.964449999999999     35.290054999999995     40.900345000000002
H      37.921949999999995     42.257825000000011     40.453250999999995
H      40.203149999999994     42.501765000000006     35.993504999999985
H      40.507050000000007     40.295854999999996     35.252904999999984
H      36.975750000000005     32.927554999999998     37.170804999999987
H      38.316550000000007     33.719454999999996     35.835304999999991
H      41.221249999999991     36.536954999999992     33.351704999999995
H      40.815649999999998     34.728054999999998     33.573604999999986
H      43.270650000000003     37.647354999999990     35.164504999999991
H      44.469350000000006     36.293854999999994     35.096104999999994
H      42.720749999999995     34.723455000000001     34.975704999999991
N      39.311750000000004     39.458054999999995     36.989304999999987
O      39.264049999999997     43.072445000000002     38.377304999999993
