9

C      38.362421999999988     37.395799999999994     37.781939999999992
C      38.733424999999997     38.442899999999995     36.866689999999998
C      37.396434999999975     37.424199999999999     38.933320000000002
H      36.647135000000006     38.352699999999999     38.534330000000004
H      38.961284999999997     36.464700000000008     37.450139999999998
H      39.352864999999994     38.522300000000001     35.957470000000001
H      38.440826999999992     39.561599999999999     37.078530000000001
H      36.871734999999987     36.438400000000001     39.176630000000003
H      37.806954999999988     37.649200000000008     40.042529999999999
