63

C      39.337350000000001     41.489199999999997     38.032299999999992
C      39.666050000000013     40.912099999999995     39.259100000000004
C      41.437950000000001     33.762000000000000     39.986900000000006
C      38.965250000000012     40.624300000000005     36.905300000000011
C      40.106750000000005     33.638800000000003     39.332000000000008
C      39.592650000000006     39.489000000000004     39.630600000000001
C      41.533750000000012     33.539800000000000     41.189400000000006
C      38.543850000000006     34.857600000000005     37.677200000000013
C      37.988750000000010     35.726200000000006     36.674800000000005
C      38.226150000000004     38.256799999999998     36.065700000000007
C      39.703749999999999     34.832999999999998     38.402800000000013
C      38.722149999999999     39.172100000000000     37.127600000000001
C      38.529450000000011     37.111499999999992     36.666500000000013
C      39.793150000000011     36.247700000000009     38.869599999999991
C      39.185750000000013     38.676500000000004     38.430199999999999
C      39.223950000000002     37.273300000000006     38.069400000000002
C      39.577050000000000     42.929099999999991     37.700900000000004
C      40.376649999999998     43.480100000000007     38.776699999999991
C      40.999250000000004     42.767099999999999     39.791900000000012
C      40.628649999999993     41.415000000000006     40.156500000000008
C      37.858450000000005     33.408200000000008     37.759800000000013
C      36.865150000000000     33.117400000000004     36.833399999999997
C      36.243250000000003     34.275700000000001     36.256000000000000
C      36.829750000000004     35.488300000000010     35.830200000000005
C      37.817050000000009     32.711799999999997     38.996200000000002
C      39.142150000000001     32.610799999999998     39.584900000000005
C      39.015650000000008     41.279700000000005     35.609200000000001
C      38.838250000000002     42.631000000000000     35.351100000000002
C      39.387249999999995     43.557699999999997     36.375200000000007
C      40.679649999999995     40.566000000000003     41.511399999999995
C      39.911349999999999     41.473500000000001     42.462500000000006
C      34.842550000000003     33.866399999999999     35.530300000000011
C      34.954750000000004     33.887099999999997     34.136200000000002
C      34.674650000000000     35.293000000000006     33.414700000000011
C      38.678750000000008     40.350300000000004     34.430800000000005
H      40.061750000000004     36.722900000000010     39.906500000000008
H      40.943849999999998     32.791399999999996     41.685800000000000
H      42.172250000000005     34.426099999999998     39.430500000000009
H      37.602550000000008     38.433199999999999     35.258599999999987
H      40.570849999999993     44.534700000000001     39.243600000000001
H      41.170250000000010     43.270800000000008     40.767300000000006
H      36.540350000000004     36.459400000000002     35.073499999999996
H      37.169850000000011     31.841900000000006     39.227900000000005
H      39.435149999999993     32.077199999999998     40.643100000000004
H      38.680350000000004     42.803500000000000     34.276600000000002
H      39.622550000000004     44.808899999999994     36.189000000000007
H      39.787750000000003     41.019500000000008     43.688500000000005
H      38.931950000000001     41.267400000000009     41.822300000000013
H      40.064350000000005     42.570399999999992     42.253000000000000
H      35.883050000000011     33.491399999999999     33.781500000000008
H      34.065350000000009     33.174000000000007     33.685900000000004
H      42.430849999999992     33.688299999999998     41.604200000000006
H      36.765850000000000     31.191100000000002     37.362900000000010
H      33.569150000000008     35.679400000000001     33.628300000000010
H      34.731050000000010     35.124400000000009     32.311499999999995
H      35.366550000000004     36.031999999999996     33.461800000000011
H      39.210849999999994     39.358099999999993     34.552600000000012
H      38.985250000000008     40.863300000000010     33.378900000000002
H      37.632750000000001     40.050699999999992     34.611000000000004
O      41.803150000000002     40.271600000000007     41.791800000000009
O      34.135249999999999     33.648300000000006     36.486800000000002
O      40.082150000000013     39.207899999999995     40.760600000000011
O      36.500150000000005     31.846100000000000     36.709200000000010
