40

C      36.270299999999999     38.543774999999989     38.364824999999982
C      36.918200000000006     37.273775000000001     38.524524999999983
C      37.618600000000001     38.438974999999999     33.455224999999984
C      36.259500000000003     39.045074999999997     37.034424999999985
C      38.140700000000002     37.103375000000000     37.694324999999992
C      37.041600000000003     38.969975000000005     34.629124999999988
C      38.914200000000008     37.180374999999991     35.283424999999994
C      37.188100000000006     38.572774999999993     36.158224999999987
C      38.008399999999995     37.335075000000003     36.253424999999993
C      35.633000000000010     38.676474999999996     39.752924999999991
C      36.157300000000006     38.018874999999994     40.973006999999996
C      36.241300000000010     36.628574999999998     40.747370000000004
C      36.188000000000002     36.318474999999992     39.363924999999995
C      35.481400000000008     40.101974999999996     40.044324999999986
C      35.489100000000008     40.663133000000002     41.320117000000010
C      35.484000000000009     39.742675000000006     42.520505000000000
C      35.658500000000004     38.455674999999999     42.309524999999994
C      39.024099999999997     36.343275000000006     38.528424999999984
C      39.698700000000002     36.719174999999993     39.445424999999986
C      40.333700000000007     36.858374999999995     35.950424999999981
C      38.494700000000002     37.526574999999994     34.021224999999987
C      35.483200000000004     35.064274999999995     38.943924999999993
H      36.198500000000010     39.762474999999995     34.502224999999981
H      35.441500000000005     39.796674999999986     36.773924999999991
H      36.554400000000001     35.953975000000000     41.431195000000002
H      35.730499999999999     40.707845000000006     39.251724999999993
H      35.847700000000003     41.797025000000005     41.070393999999993
H      35.208300000000008     40.158474999999989     43.617675000000006
H      35.524200000000008     37.680474999999994     43.075604999999996
H      39.382500000000007     34.311975000000004     38.530524999999983
H      39.872799999999998     36.793374999999990     40.584266000000000
H      40.420200000000001     36.616974999999996     37.083124999999981
H      41.244099999999996     36.298074999999997     35.334924999999984
H      40.906000000000006     37.718774999999994     36.304524999999984
H      37.329100000000004     38.431875000000005     32.382324999999994
H      38.698999999999998     36.879774999999995     33.157724999999985
H      36.026700000000005     34.202974999999995     38.938324999999992
H      35.287300000000002     35.172475000000006     37.751024999999984
H      34.755900000000004     34.727774999999994     39.779824999999988
O      39.153900000000007     34.976675000000000     37.899224999999987
