42

C      42.629039999999996     39.608199999999997     39.339749999999995
C      34.550920000000005     38.134500000000003     33.354450000000000
C      38.467420000000004     38.089800000000004     42.659350000000003
C      35.878219999999999     38.660400000000003     33.234749999999998
C      37.320420000000006     37.509199999999993     42.072749999999992
C      34.472620000000006     37.366500000000002     34.519849999999998
C      39.651820000000001     38.195700000000002     41.775949999999995
C      37.162420000000004     37.177000000000000     40.723650000000006
C      40.577056999999996     38.615200000000002     39.770949999999999
C      40.534440999999994     38.773600000000002     38.397150000000003
C      35.310419999999986     36.370700000000006     36.609249999999996
C      36.283919999999988     36.299300000000002     37.639150000000001
C      39.124919999999996     38.291399999999996     36.231549999999999
C      35.574119999999986     37.056400000000004     35.308650000000000
C      39.506219999999992     37.790800000000004     40.453550000000007
C      39.307720000000003     38.340500000000006     37.733850000000004
C      36.852719999999998     37.753700000000002     35.002850000000002
C      38.252219999999994     37.427500000000002     39.879350000000002
C      37.528920000000006     36.970499999999994     37.308650000000000
C      37.868020000000001     37.666500000000006     36.042250000000003
C      38.262020000000000     37.656500000000001     38.426150000000000
C      36.327419999999996     37.696500000000000     43.250749999999989
C      40.359063999999996     37.812000000000005     35.464049999999993
H      41.112520000000004     39.412200000000006     37.559649999999998
H      34.071920000000006     38.370900000000006     32.407950000000000
H      38.470719999999993     38.623699999999999     43.693449999999999
H      35.793019999999991     38.861100000000000     32.057549999999999
H      40.611852999999996     38.663200000000003     42.160650000000004
H      34.426919999999988     35.772100000000002     36.818049999999999
H      35.852619999999995     35.846000000000004     38.592749999999995
H      41.169710000000002     38.089399999999998     36.129550000000002
H      37.020819999999993     36.962900000000005     43.942450000000001
H      32.709620000000008     37.425000000000004     34.812649999999998
H      35.407420000000009     36.314300000000003     41.181250000000006
H      39.872118999999998     38.438800000000001     34.567550000000004
H      41.041600000000003     37.246700000000004     35.074849999999998
N      36.987620000000007     38.458000000000006     33.950949999999999
O      43.290379999999992     40.227899999999998     38.683950000000003
O      35.370120000000000     38.384700000000002     43.511049999999990
O      33.291020000000003     36.845600000000005     34.995049999999999
O      36.034620000000004     36.460900000000002     40.513649999999991
O      41.725169999999991     38.874400000000001     40.450249999999990
