26

C      38.311850000000007     36.549549999999996     38.173949999999991
C      39.216850000000008     36.820350000000005     39.326850000000000
C      40.262550000000012     40.410149999999994     35.696950000000001
C      40.729850000000006     41.094650000000001     36.863149999999997
C      38.662350000000011     37.342749999999995     37.025650000000006
C      39.996550000000006     38.158950000000004     39.293650000000000
C      40.048250000000003     39.002650000000003     35.820650000000008
C      40.702850000000005     40.427849999999992     38.159949999999995
C      39.484250000000010     38.532349999999994     37.017050000000005
C      39.969950000000004     39.297650000000004     38.255349999999993
C      37.017350000000015     35.790550000000003     38.092549999999989
C      36.811950000000003     35.145850000000003     39.333649999999992
C      37.790050000000015     35.282950000000000     40.376350000000009
C      38.998250000000006     35.931049999999999     40.374849999999995
C      35.803750000000015     34.111550000000001     39.760750000000009
H      40.272050000000014     40.832249999999995     34.721150000000002
H      40.783249999999995     42.225749999999998     36.822550000000000
H      38.156650000000006     36.789749999999991     36.183250000000008
H      40.084350000000008     38.404149999999994     34.871050000000004
H      41.113050000000001     40.938049999999997     39.073349999999991
H      36.524550000000012     35.346850000000003     37.198150000000005
H      37.366450000000007     34.769050000000000     41.278849999999998
H      39.804749999999999     35.957750000000004     41.237650000000009
H      34.886949999999999     33.774250000000002     39.058950000000003
O      35.714050000000007     33.783849999999994     40.914549999999998
O      40.516750000000009     38.376249999999999     40.305150000000005
