5

C      37.933290000000000     37.925599999999996     38.097250000000003
H      37.193230000000000     38.594999999999999     37.602450000000005
H      38.057609999999997     37.455699999999993     37.065349999999995
H      37.661439999999999     37.405000000000001     38.934650000000005
H      38.806770000000000     38.515099999999997     38.509550000000004
