41

C      37.926199999999994     37.193963999999994     39.449200000000005
C      37.610199999999999     38.648435000000006     39.142400000000009
C      36.779400000000003     36.599155000000003     34.892800000000008
C      37.817200000000007     36.228555000000000     38.498500000000007
C      37.074500000000008     38.926875000000003     37.899200000000008
C      37.379500000000000     35.845055000000009     35.985699999999994
C      36.350600000000007     37.833715000000005     35.511400000000009
C      37.322200000000002     36.549255000000002     37.133400000000009
C      36.892600000000002     37.855134999999997     36.917699999999996
C      38.066600000000001     36.798651700000001     40.942000000000007
C      38.528900000000000     38.003644999999999     41.682000000000002
C      38.670999999999992     39.418765000000000     41.164600000000007
C      38.424399999999999     39.548704999999998     39.805199999999999
C      38.458400000000005     35.486854999999998     41.254900000000006
C      39.148099999999999     35.402355000000000     42.410199999999989
C      39.705100000000002     36.433355000000020     43.222000000000008
C      39.104000000000006     37.733365000000006     42.899000000000015
C      38.060000000000002     34.382254999999986     40.235300000000009
C      37.754600000000003     34.726454999999987     39.033000000000001
C      39.061799999999998     40.499995000000006     41.932800000000000
C      39.211499999999994     41.795935000000000     41.256399999999999
C      39.133299999999991     41.889385000000004     39.893199999999993
C      38.961199999999998     40.698565000000002     39.059500000000000
C      36.912500000000001     36.083055000000002     33.419800000000009
C      37.490500000000004     34.929454999999990     33.109400000000008
H      37.475299999999997     40.083645000000004     37.434799999999996
H      37.953599999999994     34.732454999999987     35.904400000000010
H      35.311000000000000     38.046074999999995     35.244000000000000
H      39.460300000000004     34.460755000000013     42.890699999999995
H      40.689000000000000     36.250955000000005     43.455100000000016
H      38.894500000000001     38.113625000000006     43.763799999999989
H      37.916699999999999     33.400555000000004     40.716600000000000
H      37.052799999999998     33.888955000000010     38.654100000000000
H      39.661400000000000     42.362915000000001     42.075900000000004
H      39.400399999999998     42.599444999999996     39.199200000000005
H      39.308000000000000     40.352355000000003     38.080600000000004
H      39.775600000000004     41.351045000000006     43.521799999999999
H      35.990200000000002     36.747577499999998     33.127900000000004
H      37.482500000000002     34.392155000000002     32.236200000000011
H      38.212499999999999     34.465454999999999     33.981200000000001
O      39.592800000000004     40.363924999999995     43.180600000000013
