5

C      37.954449999999994     37.977199999999989     37.689799999999991
H      37.149750000000012     37.179200000000002     37.282600000000002
H      38.308850000000007     38.082299999999989     38.753399999999999
H      37.147450000000006     38.820799999999998     37.965200000000010
H      38.852549999999994     37.533799999999999     37.246600000000001
