6

C      37.608390000000000     38.515399999999993     38.336599999999990
C      38.200990000000004     37.472799999999999     37.658200000000008
H      36.772220000000004     38.859999999999999     37.750500000000002
H      38.226970000000009     39.165399999999998     39.144400000000005
H      37.977810000000005     36.834600000000002     36.855599999999995
H      39.227779999999996     37.410899999999998     38.073599999999999
