8

C      38.215750000000000     38.500399999999999     37.556149999999995
C      37.926150000000007     37.660500000000006     38.751550000000002
H      38.967449999999999     39.369599999999998     37.965249999999997
H      38.951149999999998     37.936300000000010     36.692950000000003
H      37.332550000000012     38.655599999999993     36.991949999999996
H      37.032550000000001     38.034300000000009     39.307049999999997
H      37.807149999999993     36.630400000000002     38.660249999999998
H      38.952750000000009     37.241600000000005     39.243250000000003
