5

C      38.148199999999996     37.772799999999989     37.800599999999996
H      38.117000000000004     37.051199999999994     38.761299999999999
H      38.596499999999999     38.948800000000006     37.743400000000001
H      38.817499999999995     37.085499999999996     37.238700000000001
H      37.182500000000005     37.976100000000002     37.606000000000002
