8

C      36.929349999999992     37.763699999999986     38.829450000000001
C      38.719049999999996     37.295500000000004     37.125950000000003
C      37.964249999999993     38.167400000000001     38.107750000000010
H      36.274850000000001     36.819800000000001     38.837949999999999
H      36.591549999999991     38.511300000000006     39.805250000000001
H      38.008550000000000     37.049899999999994     36.194749999999999
H      39.725149999999999     37.561999999999998     36.842150000000004
H      38.465149999999994     39.180199999999999     38.310850000000002
