44

C      38.732849999999999     37.657449999999997     39.132999999999996
C      38.351650000000006     38.825850000000003     38.394499999999994
C      34.689750000000004     38.752749999999992     41.111499999999992
C      38.060150000000007     37.333849999999984     40.430899999999994
C      37.479550000000003     39.844849999999994     38.963099999999997
C      35.714550000000003     37.705949999999987     41.391099999999994
C      35.062250000000006     39.637349999999998     40.064899999999994
C      36.763950000000008     38.076449999999994     40.614199999999997
C      36.423350000000013     39.269350000000003     39.724999999999994
C      39.208749999999995     36.598050000000001     38.297200000000004
C      39.489050000000006     36.845050000000001     36.820300000000003
C      39.838750000000005     38.218849999999989     36.433099999999996
C      38.977750000000015     39.245949999999993     37.146699999999996
C      39.205250000000007     35.213949999999997     38.767899999999997
C      39.743550000000013     34.352849999999989     37.731799999999993
C      40.323350000000005     34.487849999999995     36.493600000000001
C      40.111150000000009     35.882849999999991     36.082199999999986
C      38.823850000000007     34.813849999999988     40.084599999999995
C      38.154150000000001     35.859150000000000     40.695099999999996
C      40.366950000000003     38.589749999999995     35.201499999999996
C      39.989649999999997     39.922849999999997     34.721599999999995
C      39.540950000000009     40.999149999999986     35.556399999999996
C      38.704250000000002     40.567250000000001     36.575099999999992
C      40.966350000000006     37.603149999999999     34.230300000000000
C      37.501650000000012     41.135949999999994     38.354600000000005
C      38.107050000000001     41.597250000000003     37.295900000000003
C      37.782350000000008     35.805250000000001     42.161000000000001
H      36.412649999999999     35.580550000000002     42.240899999999996
H      41.441050000000004     35.527749999999997     34.655599999999993
H      40.768450000000001     37.814650000000000     33.198800000000006
H      38.062350000000009     36.979550000000003     42.441800000000001
H      33.826549999999997     39.480649999999997     41.899000000000001
H      35.686149999999998     36.667450000000002     41.844200000000001
H      34.334650000000011     40.478449999999995     39.782100000000000
H      39.908750000000012     33.512550000000005     38.216099999999997
H      40.615250000000003     33.620049999999992     35.802999999999997
H      39.007450000000006     33.870649999999998     40.537700000000001
H      40.404550000000000     40.084750000000000     33.605400000000003
H      39.571749999999994     41.980149999999995     35.411299999999997
H      42.173450000000003     37.671949999999995     34.420900000000003
H      36.972750000000005     42.047550000000001     38.940699999999993
H      37.950350000000014     42.487449999999995     36.888499999999993
H      38.075150000000008     34.977449999999990     42.801199999999994
N      40.665149999999997     36.233750000000001     34.984600000000000
