9

C      37.584050000000005     38.023649999999996     37.071199999999997
C      38.713750000000005     38.451749999999997     37.994699999999995
C      38.985749999999996     37.609849999999994     39.072199999999995
H      37.854550000000003     38.221350000000001     35.933499999999995
H      37.403049999999993     36.975549999999998     37.024200000000008
H      38.321150000000003     39.523849999999996     38.091800000000006
H      36.674850000000006     38.852850000000004     36.969499999999996
H      39.037850000000006     36.476150000000004     38.933900000000008
H      39.325149999999994     37.687650000000005     40.066500000000005
