45

C      36.836249999999993     37.762999999999991     37.790149999999990
C      37.076149999999998     38.263300000000001     36.358449999999991
C      41.650950000000002     37.203600000000002     38.600649999999987
C      37.879350000000009     37.482300000000002     38.711050000000000
C      38.522649999999999     38.086800000000004     36.078449999999997
C      40.298250000000003     37.091600000000000     39.219249999999995
C      40.905949999999997     37.550300000000000     36.457349999999991
C      39.221350000000008     37.252299999999998     38.276049999999991
C      39.545350000000006     37.747899999999994     36.908249999999995
C      35.671250000000001     38.200499999999991     38.391849999999991
C      34.800249999999998     39.193500000000000     37.547349999999994
C      35.106450000000002     39.646599999999992     36.284349999999996
C      36.325650000000003     39.196399999999997     35.665649999999999
C      35.168250000000008     37.359599999999993     39.449449999999999
C      33.720550000000010     37.556999999999995     39.416549999999994
C      33.216450000000002     38.831499999999998     39.438049999999983
C      33.698150000000005     39.609999999999999     38.300349999999995
C      36.097850000000001     36.504499999999993     40.200949999999992
C      37.427349999999997     36.765400000000000     39.935649999999995
C      39.781550000000003     36.161999999999999     40.370750000000001
C      42.052050000000001     37.109299999999998     37.276649999999989
C      42.841050000000003     37.674799999999998     39.487549999999999
C      40.525849999999991     35.074100000000001     40.419349999999994
C      38.502650000000010     36.185099999999998     41.190249999999992
C      34.452449999999999     40.823000000000000     35.515249999999988
H      33.741050000000008     40.708800000000004     34.567449999999994
H      38.752749999999999     38.314200000000000     34.993449999999996
H      33.548650000000002     36.716999999999999     40.206049999999991
H      32.313150000000000     39.270299999999999     39.947549999999993
H      35.752950000000006     35.522799999999997     40.613749999999996
H      37.394150000000003     39.388899999999992     34.057749999999999
H      43.146650000000001     36.953600000000002     37.036249999999995
H      40.939349999999997     37.535699999999999     35.343849999999996
H      43.443350000000002     37.808599999999991     38.442449999999994
H      43.686850000000000     37.135899999999999     39.805250000000001
H      40.580749999999995     34.259700000000002     41.214950000000002
H      42.781150000000004     38.804899999999989     39.554450000000003
H      41.334550000000000     35.315800000000003     39.730949999999993
H      37.965449999999997     35.122099999999996     41.514049999999997
H      38.825850000000010     36.796599999999998     41.942250000000001
H      32.746850000000002     41.583999999999996     38.598049999999994
H      33.615249999999996     41.196599999999997     35.898949999999999
H      35.313250000000004     41.740299999999998     35.330249999999992
O      32.863350000000004     40.724499999999992     38.260949999999987
O      36.641550000000002     39.754099999999994     34.525250000000000
