57

C      40.228949999999998     32.636799999999994     39.866749999999996
C      39.959450000000004     34.151399999999995     40.117050000000006
C      36.906850000000006     39.155999999999992     41.829150000000006
C      40.539850000000008     41.923199999999994     32.815150000000003
C      40.855549999999994     40.568100000000001     32.555350000000004
C      36.571850000000005     39.790800000000004     40.665750000000003
C      37.961450000000006     38.144400000000005     41.766250000000007
C      40.287650000000006     42.436399999999992     34.055450000000000
C      40.527750000000005     39.645799999999994     33.577250000000006
C      37.159150000000004     39.245399999999989     39.348550000000003
C      40.046450000000000     35.041499999999999     39.027850000000001
C      39.183550000000004     36.175600000000003     38.907750000000000
C      39.989650000000005     36.925599999999989     36.435850000000002
C      39.834450000000004     37.737599999999986     35.301950000000005
C      38.868650000000002     38.163999999999987     40.737550000000006
C      39.217950000000009     36.935299999999998     37.672950000000000
C      40.331550000000000     41.622199999999992     35.293650000000007
C      40.029050000000005     40.258399999999995     34.877150000000000
C      38.509450000000001     38.774399999999986     39.505950000000006
C      39.609350000000006     39.194099999999992     35.671150000000004
C      39.068450000000006     39.386499999999984     37.066650000000003
C      39.061049999999994     38.396699999999996     38.023050000000005
C      40.946950000000008     38.269799999999989     33.211049999999993
C      40.564549999999997     37.361599999999996     34.125950000000003
C      36.655950000000004     39.927700000000002     43.100050000000003
C      35.607650000000007     40.918999999999997     42.943049999999999
C      35.136250000000004     41.372799999999998     41.597750000000005
C      35.727150000000002     40.918999999999997     40.493950000000005
C      38.382350000000002     37.630600000000001     43.251850000000005
C      38.213950000000004     38.598100000000002     44.277249999999995
C      37.397550000000003     39.834699999999998     44.298350000000006
H      40.789850000000008     32.039699999999996     40.722050000000003
H      39.317650000000008     32.120499999999993     39.582850000000001
H      39.777250000000002     34.215299999999999     41.160350000000001
H      40.864350000000009     32.598100000000002     38.831750000000007
H      39.773150000000008     43.406499999999994     34.332250000000002
H      36.634750000000004     39.379499999999993     38.364550000000001
H      40.618850000000002     39.087899999999991     41.002649999999996
H      38.287150000000004     36.232100000000003     39.481650000000002
H      40.395550000000007     35.849800000000002     36.750149999999998
H      41.722749999999998     38.022199999999998     32.462749999999993
H      41.220550000000003     36.308499999999995     34.212550000000000
H      34.925650000000005     40.990899999999996     43.742650000000005
H      34.277250000000002     42.211699999999993     41.538749999999993
H      35.208150000000003     41.289400000000001     39.327149999999996
H      40.775050000000000     34.743300000000005     38.385850000000005
H      38.345050000000008     36.282499999999999     43.738949999999996
H      38.692650000000008     38.186399999999992     45.134650000000001
H      37.483050000000006     40.747000000000000     44.889849999999996
H      40.990150000000007     43.960300000000004     32.448149999999998
H      41.172250000000005     40.985899999999987     30.865350000000003
H      40.456450000000004     42.211600000000004     36.279950000000007
H      38.005750000000006     40.990399999999994     38.096150000000002
N      38.560250000000003     40.596999999999994     37.255950000000006
O      41.332250000000009     40.181299999999993     31.384049999999995
O      40.207450000000001     38.172600000000003     41.139250000000004
S      41.313449999999996     43.081699999999998     31.608450000000001
