8

C      37.900250000000000     38.670849999999994     37.977499999999992
C      38.314650000000000     37.331750000000007     37.678600000000003
H      36.839449999999999     38.501150000000003     37.907300000000006
H      38.122050000000002     38.828249999999997     39.112899999999996
H      39.160550000000001     37.388550000000002     36.887100000000004
H      38.853149999999999     36.590850000000003     38.354700000000008
H      37.561850000000007     36.571750000000002     37.177000000000007
H      38.510049999999993     39.428249999999998     37.295200000000008
