5

C      37.927849999999992     37.757449999999992     37.755549999999999
H      37.767750000000007     37.433949999999996     38.955150000000003
H      38.958449999999999     37.642049999999998     37.587550000000007
H      37.675749999999994     38.710449999999994     37.951149999999998
H      37.041550000000001     37.289550000000006     37.044849999999997
