45

C      38.184099999999994     39.988450000000000     36.282049999999998
C      39.592399999999991     40.389250000000011     36.130350000000000
C      39.133199999999995     38.899450000000009     40.965449999999997
C      40.418799999999997     39.684350000000002     40.826550000000005
C      37.530900000000003     40.084250000000004     37.608450000000005
C      40.296499999999995     40.720450000000007     37.274249999999995
C      38.239800000000002     39.199350000000003     39.950750000000006
C      40.909300000000002     40.250249999999994     39.670350000000006
C      38.468499999999999     39.974250000000005     38.798350000000006
C      39.954099999999990     40.173450000000003     38.545350000000006
C      37.176500000000004     39.850450000000002     35.292850000000008
C      37.786099999999998     40.040550000000003     33.911450000000002
C      39.095100000000002     40.204750000000011     33.616250000000001
C      39.933700000000002     40.059350000000002     34.741350000000004
C      38.895399999999995     38.287650000000006     42.336550000000003
C      39.817499999999995     38.097750000000012     43.461249999999993
C      41.058000000000000     38.672250000000012     43.224350000000001
C      41.223599999999990     39.342850000000006     41.955850000000005
C      35.784300000000002     39.902950000000011     35.471450000000004
C      34.796099999999996     39.979250000000000     34.376550000000002
C      35.268900000000002     40.128450000000008     33.126750000000008
C      36.724100000000000     40.061550000000004     32.834949999999992
C      35.180199999999999     39.973550000000010     36.827850000000005
C      36.122799999999998     39.988950000000010     37.808450000000001
C      39.971199999999996     37.031150000000004     44.534250000000007
C      39.261699999999990     35.705249999999999     44.382950000000001
C      36.911699999999996     39.905149999999999     31.419850000000000
H      41.251799999999996     41.082849999999993     37.141150000000003
H      37.383800000000001     38.629850000000012     40.382649999999998
H      41.938499999999991     40.424350000000004     39.360550000000003
H      41.044399999999996     40.345950000000009     34.582750000000004
H      37.828399999999995     38.044950000000007     42.439650000000007
H      42.160799999999988     38.646450000000009     43.728250000000003
H      42.271400000000000     39.572050000000011     41.507049999999992
H      33.728600000000000     39.881850000000007     34.778050000000000
H      34.515000000000001     40.275750000000002     32.115050000000004
H      34.013999999999996     39.942150000000005     37.061650000000007
H      35.903900000000000     40.070650000000008     38.905949999999997
H      39.878799999999998     34.917149999999999     44.940249999999999
H      39.188399999999994     35.666850000000004     43.205349999999996
H      38.406699999999994     35.617650000000005     45.166650000000004
H      37.765299999999996     39.733750000000001     30.709950000000003
H      36.118899999999996     39.585550000000005     30.607150000000001
H      39.628399999999999     40.117750000000001     32.693750000000001
O      40.825800000000001     37.191949999999999     45.392850000000003
