5

C      38.144250000000000     38.088149999999999     37.924999999999990
H      37.166049999999998     38.641349999999996     38.366099999999996
H      38.833950000000002     38.753650000000000     37.377699999999997
H      38.199449999999999     37.246350000000000     37.290599999999998
H      38.350250000000003     37.451249999999995     38.709400000000002
