5

C      38.023749999999993     38.160549999999994     37.824399999999997
H      37.201950000000004     38.852150000000002     37.885400000000004
H      38.798049999999996     38.332249999999995     37.131200000000007
H      37.883450000000003     37.147849999999998     37.582800000000006
H      38.518950000000004     38.431350000000002     38.868799999999993
