8

C      37.556455000000000     38.501049999999992     37.909899999999993
C      38.440155000000004     37.296850000000006     38.033099999999990
H      38.060655000000011     39.586250000000007     37.766300000000001
H      36.809044999999998     38.628249999999994     38.694300000000005
H      38.969054999999997     37.678750000000008     38.952100000000002
H      38.031554999999997     36.413749999999993     38.503599999999999
H      39.190955000000002     37.390550000000005     37.212299999999992
H      36.959255000000013     38.276050000000012     37.047899999999998
