5

C      37.845999999999989     37.817750499999988     37.995749999999994
H      38.922300000000000     38.060730499999991     37.922149999999995
H      37.597400000000000     37.129929500000003     37.321750000000002
H      37.077700000000000     37.315960500000003     38.678249999999998
H      37.554399999999994     38.870070499999997     37.832149999999999
