6

C      38.037649999999992     37.490769999999998     38.108300000000000
H      37.034750000000003     37.451430000000002     38.816399999999987
H      38.965249999999997     38.027559999999994     38.498700000000014
H      38.210149999999992     36.634650000000008     37.183600000000013
H      37.145750000000007     39.365349999999992     37.839800000000011
O      37.255450000000010     38.558060000000012     37.291400000000010
