5

C      37.904749999999993     37.920699999999997     37.906749999999995
H      37.077050000000000     37.269000000000005     37.807549999999999
H      37.797050000000006     38.730999999999995     37.095649999999999
H      38.068750000000001     38.281700000000001     38.904350000000001
H      38.922950000000000     37.291100000000000     37.365649999999995
