5

C      37.867549999999994     38.224299999999999     37.926225000000002
H      37.163049999999998     37.950000000000003     37.141584999999999
H      37.409549999999996     38.638400000000004     38.858415000000001
H      38.529849999999996     37.361599999999996     38.170895000000002
H      38.836950000000002     38.545400000000001     37.328125000000000
