12

C      37.512399999999992     37.351049999999987     36.728814999999997
C      38.024999999999991     36.945750000000004     37.981465000000000
C      38.271299999999997     37.785950000000000     39.157605000000004
C      38.581699999999998     39.129050000000007     39.008285000000001
C      38.470999999999997     39.496249999999989     37.602073000000004
C      37.635500000000000     38.789249999999996     36.715514999999996
H      37.287399999999998     36.845950000000002     35.808014999999997
H      38.525500000000001     37.624549999999999     40.191985000000003
H      38.756399999999999     40.085849999999994     39.768585000000002
H      38.446899999999999     40.640349999999998     37.208837000000003
H      37.243600000000001     39.366450000000000     35.936014999999998
S      38.567399999999999     35.359650000000002     38.141204999999999
