8

C      38.403249999999993     38.393399999999993     37.425799999999995
C      37.583749999999995     37.932999999999993     38.657299999999992
H      39.131550000000004     39.114599999999996     37.869600000000005
H      37.007050000000000     38.746399999999994     39.171599999999998
H      38.914249999999996     37.452399999999997     37.126400000000004
H      36.868449999999996     36.885400000000004     38.672699999999992
H      38.200749999999999     37.964999999999996     39.571200000000005
H      37.660249999999998     38.429200000000002     36.428799999999995
