5

C      38.269599999999997     37.848499999999994     37.828949999999999
H      38.450800000000001     38.833100000000002     37.420649999999995
H      38.522799999999989     37.601399999999998     38.896050000000002
H      38.798500000000004     37.166899999999998     37.103949999999998
H      37.201499999999996     37.927699999999994     37.546250000000001
