5

C      37.788449999999997     37.637799999999999     38.036399999999993
H      37.825449999999989     37.206999999999994     37.027600000000000
H      37.169750000000008     37.690600000000003     38.972400000000000
H      38.830249999999992     37.390900000000002     38.471100000000000
H      37.928449999999998     38.793000000000006     37.930999999999997
