6

C      37.986099999999993     38.402049999999988     37.317899999999995
C      37.925500000000000     37.008550000000000     37.838799999999992
H      39.105939999999990     38.299149999999997     37.068100000000001
H      37.464620000000011     39.427850000000007     37.216899999999995
H      36.894060000000010     36.572149999999993     37.748499999999993
H      38.110010000000003     36.796250000000001     38.931899999999999
