6

C      37.523949999999999     38.267499999999998     37.722399999999993
C      38.496749999999992     37.716300000000004     38.504799999999989
H      37.581350000000000     38.199600000000004     36.481600000000000
H      36.416950000000000     38.392600000000002     38.133300000000006
H      37.897850000000005     37.607399999999998     39.518400000000000
H      39.583050000000000     37.688100000000006     38.196399999999997
