6

C      37.744299999999996     38.426114499999983     38.673850000000002
C      38.065600000000003     37.547214499999981     37.580350000000003
H      38.379599999999996     38.230214499999995     39.570349999999998
H      36.904100000000000     39.010485500000009     38.779749999999993
H      39.095900000000000     36.989514499999991     37.582950000000004
H      37.703000000000003     37.867514499999992     36.429650000000002
