47

C      38.901459999999993     36.596249999999998     36.823849999999993
C      38.563360000000003     36.657349999999994     35.486649999999997
C      35.043559999999999     39.077449999999999     37.809149999999995
C      35.095559999999999     39.832949999999997     36.471649999999997
C      38.070760000000000     37.290649999999999     37.773749999999993
C      37.555959999999999     37.477249999999998     34.861249999999991
C      35.849960000000003     37.949449999999999     38.359949999999991
C      35.835459999999998     39.095450000000000     35.424250000000001
C      36.944560000000003     38.074849999999998     37.446649999999998
C      36.696159999999999     38.113849999999999     35.958349999999996
C      39.998959999999990     36.268249999999995     37.582850000000001
C      41.067359999999994     35.567850000000007     36.682049999999997
C      40.793559999999999     35.487350000000006     35.269349999999996
C      39.631360000000001     35.818250000000006     34.606349999999999
C      33.965560000000004     39.553550000000001     38.400449999999985
C      33.346360000000004     40.808149999999998     38.119949999999996
C      33.813260000000000     41.684349999999995     37.142949999999999
C      34.706960000000002     41.118749999999991     36.258850000000002
C      40.353560000000002     36.609750000000005     38.956750000000000
C      41.821359999999999     36.232450000000000     39.145949999999992
C      42.765659999999997     35.538550000000001     38.571349999999988
C      42.335059999999999     35.099149999999995     37.268050000000002
C      39.346860000000000     36.637149999999991     39.944649999999996
C      38.068860000000001     36.891450000000006     39.310149999999993
C      37.017360000000004     36.788349999999994     40.226349999999989
C      35.846660000000000     37.292550000000006     39.651650000000004
C      34.488260000000004     37.157049999999998     40.468750000000000
C      37.227760000000004     36.160650000000004     41.675849999999997
H      37.321560000000005     36.963349999999991     33.941049999999997
H      35.677759999999999     39.281549999999996     34.389749999999999
H      41.892359999999996     35.205649999999991     34.659750000000003
H      33.601680000000002     39.164349999999999     39.300949999999993
H      32.443539999999999     41.090549999999993     38.671549999999989
H      33.444140000000004     42.832149999999999     37.065049999999999
H      35.100360000000002     41.822749999999999     35.412250000000000
H      41.923259999999999     36.963849999999994     39.938450000000003
H      43.556460000000001     35.425950000000000     39.365849999999995
H      39.832660000000004     36.621449999999996     40.848949999999995
H      42.702559999999998     33.167850000000001     36.207849999999993
H      33.987160000000003     36.189350000000005     40.778250000000000
H      34.242159999999998     37.815250000000006     41.264049999999997
H      33.793359999999993     37.065749999999994     39.495350000000002
H      37.800760000000004     36.932749999999999     42.548050000000003
H      36.454860000000004     36.062749999999994     42.370649999999998
H      37.867559999999997     35.136949999999999     41.681549999999994
O      42.995559999999990     34.057550000000006     36.753749999999997
O      39.421859999999995     35.500550000000004     33.451949999999997
