6

C      37.945749999999990     37.937489999999997     38.609294299999988
C      37.917749999999998     38.237350000000006     37.257810999999990
H      38.894149999999996     38.046250000000001     39.261548000000005
H      37.267449999999997     37.924340000000001     39.434689000000006
H      37.105850000000004     38.331680000000006     36.565310999999994
H      38.683149999999998     37.668319999999994     36.661610999999994
