7

C      37.007549999999995     38.622349999999990     37.347649999999987
C      38.837750000000000     37.494549999999997     38.937449999999998
C      37.935250000000011     38.195749999999997     38.170349999999999
H      37.227049999999991     39.465750000000000     36.616249999999994
H      36.146650000000008     37.987949999999998     36.951250000000002
H      39.853349999999992     37.447249999999997     38.821449999999999
H      38.494050000000001     36.534250000000000     39.383750000000006
