5

C      37.150300000000001     38.180049999999994     37.898949999999985
C      38.402200000000008     37.786749999999998     37.430350000000004
H      36.544000000000011     38.525450000000006     37.067549999999997
H      36.865100000000012     38.635350000000003     38.932450000000003
O      39.455999999999989     37.364649999999997     37.111049999999992
