41

C      39.260849999999991     38.004199999999997     39.986849999999990
C      36.557350000000000     37.852500000000006     37.612749999999998
C      36.584650000000011     36.653000000000006     38.414949999999990
C      35.489050000000006     34.811800000000005     34.427949999999996
C      35.816649999999996     37.940100000000001     36.292650000000002
C      35.652550000000005     36.123400000000004     34.462649999999996
C      35.982450000000000     34.264899999999997     35.689949999999996
C      35.823750000000004     36.582899999999995     35.890549999999998
C      36.136050000000012     35.381699999999995     36.540950000000002
C      36.987549999999999     39.196899999999999     38.018250000000002
C      37.563850000000002     39.358699999999999     39.274849999999994
C      37.657250000000005     38.156199999999998     40.309750000000001
C      36.972149999999999     36.961200000000005     39.753949999999989
C      37.304850000000002     40.311400000000006     37.008350000000000
C      38.344850000000008     41.225999999999999     37.135849999999998
C      38.488350000000011     41.576899999999995     38.504249999999999
C      38.025150000000011     40.722600000000000     39.586750000000002
C      35.575950000000006     39.206699999999998     35.590649999999997
C      36.537850000000006     40.251400000000004     35.775750000000002
C      36.152950000000004     41.664299999999997     35.408349999999999
C      37.468850000000003     38.546499999999995     41.747650000000000
C      39.817450000000008     36.876899999999992     39.517350000000000
H      38.200550000000007     39.268299999999996     42.167849999999994
H      40.959350000000001     36.913799999999995     39.583049999999993
H      39.938749999999999     38.752399999999994     40.552849999999999
H      35.540250000000000     34.270099999999999     33.465350000000001
H      35.161050000000003     36.696299999999994     33.656949999999995
H      36.004450000000006     33.222800000000007     35.909649999999999
H      36.708449999999999     36.170800000000000     40.430049999999994
H      38.922850000000011     41.801699999999997     36.308349999999997
H      37.855450000000005     41.205600000000004     40.625149999999991
H      35.067450000000008     39.011499999999998     34.465649999999989
H      39.373349999999988     42.678299999999993     39.879249999999999
H      36.573450000000008     42.386399999999995     36.194249999999990
H      35.040649999999999     42.096900000000005     35.564949999999996
H      36.348450000000000     41.758700000000005     34.100250000000003
H      37.786850000000001     37.594800000000006     42.286850000000001
H      36.798650000000009     39.037599999999998     42.534649999999999
H      39.115549999999999     36.125200000000007     39.266050000000000
N      36.362350000000006     35.437200000000004     37.857250000000001
O      38.980850000000004     42.777199999999993     38.954850000000000
