5

C      38.002359999999996     38.091199999999994     38.059499999999986
H      38.600099999999998     38.142300000000006     39.020299999999992
H      38.601410000000001     37.991500000000002     36.979700000000008
H      37.398589999999999     37.048900000000003     38.339300000000009
H      37.524060000000006     38.951099999999997     37.866300000000010
