42

C      38.192844999999991     37.821599999999989     39.870099999999994
C      36.962110000000010     37.986900000000006     40.591100000000004
C      36.706335999999993     38.133000000000010     35.440100000000001
C      35.326865000000012     38.616999999999990     35.832500000000003
C      38.428815000000000     38.114800000000002     38.391100000000002
C      35.874065000000002     38.497900000000001     39.618900000000004
C      37.492069000000001     38.650900000000007     36.298700000000004
C      34.993165000000005     38.541600000000003     37.211199999999998
C      37.392263999999997     38.890199999999993     37.674100000000003
C      36.027365000000003     38.406199999999998     38.182400000000001
C      39.388545000000008     37.524900000000002     40.527799999999992
C      39.313834999999997     37.440100000000001     42.012299999999996
C      38.197175000000001     38.008600000000001     42.731699999999996
C      37.078759000000005     38.322599999999994     41.962399999999995
C      37.151220999999993     38.018400000000000     34.062300000000000
C      36.283465000000007     38.706799999999987     33.135800000000003
C      34.891465000000011     38.873100000000008     33.421500000000002
C      34.356864999999999     38.640900000000002     34.692599999999999
C      40.801724999999990     37.397000000000006     39.874800000000000
C      41.705494999999999     36.627400000000009     40.707299999999989
C      41.664874999999995     36.917200000000008     42.100400000000000
C      40.565935000000010     37.484700000000004     42.748899999999999
C      39.626904999999994     38.035499999999985     37.837399999999995
C      40.874775000000000     37.597200000000001     38.537799999999997
C      34.586264999999997     37.866200000000006     40.249799999999993
H      33.926165000000012     38.449300000000008     37.535000000000004
H      38.380724999999998     38.561000000000007     43.709599999999995
H      36.074965000000006     38.835799999999992     42.247099999999989
H      38.489225000000005     38.090000000000003     33.652700000000003
H      36.699252000000001     38.965500000000006     32.185500000000005
H      33.424264999999991     38.451800000000006     34.739399999999996
H      42.575735000000009     36.181700000000006     40.372799999999998
H      42.453935000000001     36.610100000000003     42.875499999999988
H      40.915075000000002     37.644900000000007     43.814499999999995
H      38.965535000000003     39.818299999999994     36.196800000000003
H      39.977654999999999     38.495699999999985     36.749200000000002
H      41.981324999999998     37.682500000000005     37.904100000000000
H      34.639765000000011     37.186199999999999     41.137599999999999
H      33.807765000000003     37.290599999999998     39.497099999999996
H      33.987764999999996     38.669299999999993     40.501200000000004
H      34.124464999999987     38.845300000000009     32.576300000000003
O      38.474074999999999     39.413399999999996     35.597500000000004
