6

C      37.661349999999985     37.433299999999996     37.809449999999998
C      38.474249999999998     38.451400000000000     38.405450000000002
H      37.870050000000006     36.442599999999999     37.182549999999999
H      36.496850000000009     37.720900000000000     37.566650000000003
H      38.330749999999995     39.557400000000001     38.564050000000002
H      39.503149999999991     38.224299999999992     38.817450000000001
