5

C      37.995699999999985     37.751999999999988     38.186749999999996
H      38.896599999999999     37.829099999999990     38.889049999999997
H      37.989799999999995     38.661100000000005     37.595950000000002
H      38.596299999999992     37.338899999999995     37.110950000000003
H      37.103400000000001     37.559599999999996     38.752150000000000
