43

C      39.294549999999994     36.646199999999986     39.096350000000001
C      40.328049999999998     36.595900000000000     38.182950000000005
C      34.588549999999998     38.379099999999987     33.879350000000009
C      37.792549999999991     37.013599999999997     38.789050000000010
C      39.887349999999998     36.318100000000001     36.780950000000004
C      34.622250000000001     38.307199999999995     35.229650000000007
C      36.009950000000003     37.972899999999996     33.540050000000001
C      36.348350000000003     37.598399999999998     37.043550000000003
C      38.054149999999993     36.828299999999992     34.967250000000000
C      37.551250000000003     36.926000000000002     37.438850000000009
C      38.668250000000000     36.621300000000005     36.241249999999994
C      36.034450000000000     38.016700000000000     35.755350000000000
C      36.940449999999991     37.634799999999998     34.700550000000000
C      39.584849999999996     36.445799999999998     40.462850000000003
C      40.959349999999993     35.984600000000000     40.836549999999995
C      41.644449999999999     36.437600000000003     38.802450000000000
C      38.598149999999997     36.687799999999996     41.510349999999995
C      39.171949999999995     36.720100000000002     42.866350000000004
C      40.420850000000002     36.097499999999997     43.260250000000006
C      41.185350000000000     35.632300000000001     42.168050000000008
C      37.191150000000000     36.984700000000004     41.186350000000004
C      36.852350000000001     36.875399999999999     39.850150000000006
C      35.541249999999998     37.286599999999986     39.355450000000005
C      35.322850000000003     37.837099999999992     38.098450000000007
C      33.960250000000002     38.786000000000001     32.576350000000005
C      33.745550000000001     40.090599999999995     32.337249999999997
C      36.558449999999993     37.873699999999992     32.430050000000001
H      40.451749999999997     36.046700000000001     36.004150000000003
H      33.761850000000003     38.531000000000006     35.896650000000001
H      38.677950000000003     36.488900000000001     34.100350000000006
H      42.770249999999997     36.286100000000005     38.458750000000002
H      38.586750000000002     37.456999999999994     43.626849999999997
H      40.762049999999995     36.336299999999994     44.346950000000000
H      41.968049999999991     35.057500000000005     42.518550000000005
H      36.439250000000001     36.967500000000001     41.977650000000004
H      34.737749999999998     37.425899999999999     40.137950000000004
H      34.639949999999999     38.733499999999985     37.933450000000001
H      33.560949999999991     37.965500000000006     31.769650000000002
H      34.252450000000003     40.942499999999995     33.047950000000000
H      33.229750000000003     40.748599999999989     31.653050000000000
H      36.384149999999998     38.764699999999998     31.997650000000004
H      37.143949999999990     36.949699999999993     31.867550000000005
N      41.952149999999996     36.029200000000003     39.995350000000002
