46

C      41.654299999999992     37.037250000000000     34.336459999999995
C      33.011699999999998     38.731249999999996     37.047460000000001
C      33.010100000000001     37.720050000000008     39.236404000000007
C      40.256500000000003     37.441849999999995     34.388459999999988
C      42.224200000000003     37.135250000000006     35.619560000000007
C      34.397300000000001     38.948049999999995     36.777960000000007
C      34.365899999999996     37.218250000000005     39.288066000000001
C      39.280400000000000     37.237749999999998     35.431160000000006
C      41.868699999999990     36.967950000000002     38.028459999999995
C      40.906999999999996     36.959550000000007     39.026757300000007
C      38.757800000000003     36.583150000000003     40.239060000000009
C      37.342799999999997     36.464350000000003     39.973515000000006
C      41.263599999999990     37.101450000000000     36.827060000000003
C      39.473599999999998     37.164849999999994     39.235536000000010
C      35.542699999999996     38.236149999999995     37.209760000000003
C      35.406700000000001     37.421350000000004     38.370559999999990
C      39.840499999999999     37.387049999999995     36.698660000000004
C      36.890799999999999     37.263249999999999     38.863159999999993
C      37.601399999999991     37.930949999999996     37.751059999999988
C      38.909300000000002     37.471750000000000     37.834660000000000
C      34.827100000000002     36.816350000000007     40.569940000000010
C      36.112499999999997     36.291050000000006     40.945830000000008
C      32.343800000000002     38.079750000000004     38.095759999999999
C      32.644199999999998     37.357950000000002     40.744460000000004
C      33.683300000000003     36.921750000000003     41.532500000000006
C      43.536699999999996     37.820750000000004     35.732560000000007
C      43.730499999999999     38.322949999999999     37.306559999999998
C      43.538899999999998     37.163550000000001     38.196460000000002
H      42.582900000000002     37.292350000000006     33.770460000000000
H      32.242100000000001     39.431350000000002     36.438159999999996
H      39.710799999999999     37.655549999999998     33.517159999999997
H      34.549700000000001     39.708949999999994     35.982759999999999
H      38.200499999999998     37.275749999999995     35.426959999999987
H      41.041899999999998     36.715550000000007     40.152010000000004
H      39.157699999999998     36.764250000000004     41.237700000000011
H      36.736199999999997     36.389250000000004     41.831120000000006
H      31.268900000000002     37.737350000000006     37.881159999999994
H      31.613999999999997     37.253150000000005     41.337090000000003
H      43.505299999999998     38.887049999999995     35.211160000000007
H      44.221299999999999     37.286049999999996     34.931659999999994
H      44.731099999999998     38.719750000000005     37.435360000000003
H      42.976100000000002     39.174250000000001     37.676760000000002
H      44.071100000000001     36.305850000000007     37.817059999999998
H      43.883599999999994     37.146350000000005     39.197437000000008
H      33.575699999999998     36.518250000000002     42.482840000000003
N      36.780000000000001     38.395949999999999     36.843260000000001
