5

C      37.865599999999986     37.904399999999995     38.055979999999991
H      37.180400000000006     37.110300000000002     38.764589999999998
H      38.819599999999994     37.854000000000006     38.582149999999999
H      37.291200000000003     37.430100000000003     37.235410000000002
H      37.293700000000001     38.889699999999998     38.206519999999998
