46

C      39.320049999999995     37.018649999999994     37.873399999999997
C      39.169850000000004     36.336950000000002     39.148700000000005
C      34.663249999999998     37.182149999999993     37.135400000000004
C      34.351050000000001     36.386449999999996     38.345700000000001
C      38.060449999999996     37.776749999999993     37.261200000000002
C      37.716450000000002     36.210449999999994     39.600600000000000
C      35.781950000000002     37.898449999999997     36.898000000000003
C      35.568550000000002     35.730350000000001     38.805999999999997
C      36.810650000000003     37.524050000000003     37.640200000000000
C      36.721950000000000     36.368749999999991     38.587099999999992
C      40.777250000000002     36.876750000000001     37.787900000000000
C      41.876149999999996     36.612549999999999     38.782699999999998
C      41.579649999999994     36.166449999999998     40.176099999999998
C      40.032149999999994     35.969149999999999     40.234700000000004
C      34.726450000000000     39.687249999999992     35.021200000000000
C      35.790349999999997     39.047349999999994     35.825800000000001
C      41.413649999999997     37.577449999999999     36.678200000000004
C      37.211550000000003     36.012149999999991     40.950400000000002
C      38.189749999999997     35.914850000000001     41.915900000000008
C      39.623349999999995     35.992750000000001     41.556700000000006
C      34.745950000000001     40.809049999999999     34.003700000000002
C      37.140850000000000     39.573049999999995     35.800800000000002
C      38.231249999999996     38.817250000000001     36.257100000000001
C      42.575949999999999     38.493049999999997     36.950699999999998
C      40.851950000000002     37.877349999999993     35.608499999999999
H      32.675249999999998     40.521950000000004     33.636200000000002
H      33.949850000000005     37.166849999999997     36.398300000000006
H      33.326749999999997     36.192449999999994     38.697100000000006
H      42.849350000000001     37.102450000000005     38.561100000000003
H      35.368350000000000     40.687349999999995     33.098900000000000
H      37.210749999999997     40.677549999999997     35.544499999999999
H      37.439949999999996     35.753450000000001     42.901100000000000
H      36.483349999999994     34.233450000000005     39.854999999999997
H      36.037250000000000     35.875050000000002     41.163899999999998
H      40.399750000000004     36.077749999999995     42.412400000000005
H      34.933950000000003     41.766549999999995     34.371099999999998
H      43.094450000000002     39.079949999999997     36.092000000000006
H      39.096849999999996     39.620249999999999     36.170300000000005
H      43.324750000000002     37.782849999999996     37.235100000000003
H      42.280149999999992     39.285950000000000     37.847400000000000
H      41.605650000000004     38.007949999999994     34.777000000000001
H      34.031050000000000     38.867850000000004     35.262500000000003
H      39.821850000000005     37.538849999999996     35.569600000000001
O      33.509549999999997     40.507750000000001     33.230400000000003
O      35.546349999999997     34.534450000000007     39.444200000000009
O      42.425249999999991     35.806349999999995     40.972999999999992
