30

C      37.825549999999993     37.097449999999995     38.139349999999993
C      38.689250000000001     36.532250000000005     37.145750000000007
C      38.571349999999995     40.946449999999999     36.210350000000005
C      37.194250000000011     38.366450000000000     38.145649999999989
C      39.380350000000007     37.479850000000006     36.212550000000007
C      37.600950000000012     40.592149999999997     37.135350000000003
C      39.270050000000012     39.977650000000004     35.474750000000000
C      37.694350000000000     39.284849999999992     37.204350000000005
C      38.803150000000002     38.782350000000001     36.028649999999999
C      36.964350000000010     36.220150000000004     38.895150000000001
C      37.526250000000005     34.759149999999998     39.113250000000008
C      38.120850000000004     34.399050000000003     37.874350000000007
C      36.817350000000005     41.305049999999994     38.285250000000005
C      39.172950000000000     42.330749999999995     36.357950000000002
C      37.460850000000008     34.107850000000006     40.325049999999990
H      40.215150000000008     42.137050000000002     36.557550000000006
H      37.638950000000008     33.126449999999998     40.647549999999995
H      36.007750000000001     38.607549999999989     38.799750000000003
H      40.086950000000002     37.055149999999998     35.608150000000009
H      40.092050000000000     40.014350000000000     34.833349999999996
H      39.328950000000006     33.025849999999998     37.643950000000004
H      37.546550000000011     42.018249999999995     38.805650000000000
H      36.561650000000000     40.570650000000008     39.089849999999998
H      35.876750000000001     41.528849999999998     37.791150000000002
H      38.530150000000006     42.974150000000002     37.203150000000008
H      38.727649999999997     42.933050000000001     35.432850000000002
H      37.269850000000005     34.832050000000002     41.166650000000004
N      38.715949999999992     35.199150000000003     37.095950000000002
O      35.784849999999992     36.212650000000004     38.678950000000000
O      38.282950000000000     33.065050000000006     37.865250000000003
