8

C      37.913999999999994     37.915949999999995     37.214099999999995
C      38.199999999999989     38.003349999999983     38.735099999999996
H      37.365899999999996     36.934250000000006     36.970400000000005
H      37.011200000000002     38.742550000000008     37.202200000000005
H      38.450899999999990     39.065749999999994     38.731199999999994
H      37.218099999999993     37.606650000000002     39.233699999999992
H      38.988799999999998     37.556049999999985     39.391599999999997
H      38.877399999999994     38.125650000000007     36.608400000000003
