52

C      36.538049999999998     42.927849999999992     40.217160000000000
C      39.166749999999993     36.644250000000000     38.449560000000005
C      37.890249999999995     35.992850000000004     38.335860000000004
C      36.944949999999992     40.195050000000002     40.976160000000007
C      35.987250000000003     39.151750000000000     41.208660000000002
C      39.193750000000009     37.858750000000001     39.451860000000003
C      36.587949999999992     36.224650000000004     39.026760000000003
C      37.507350000000002     39.901949999999999     39.840360000000004
C      35.617050000000006     37.927750000000003     40.508060000000000
C      37.823349999999991     38.462049999999998     39.513160000000006
C      36.742249999999999     37.473050000000001     39.819060000000007
C      40.247950000000003     36.782049999999998     37.433060000000005
C      39.972450000000009     35.937449999999998     36.345759999999999
C      38.757449999999992     35.320849999999993     36.168920000000000
C      37.632350000000002     35.284849999999999     37.119160000000008
C      40.350250000000003     38.522550000000003     39.729060000000004
C      41.455050000000000     38.360849999999992     38.842460000000003
C      41.462750000000000     37.670349999999999     37.556159999999998
C      35.356750000000005     35.913450000000005     38.440760000000004
C      35.288750000000007     35.048850000000002     37.230660000000000
C      36.630749999999992     34.313149999999993     37.170960000000008
C      34.142650000000003     36.428449999999998     39.123259999999995
C      36.527050000000003     33.393450000000001     36.054530000000000
C      36.730149999999995     33.470550000000003     38.350359999999995
C      36.936750000000004     41.768650000000001     41.179760000000002
C      41.036050000000003     34.532449999999997     34.704039999999999
C      41.278449999999992     33.601649999999999     33.926540000000003
H      37.365250000000003     43.614550000000001     40.015360000000001
H      35.476150000000004     43.402049999999988     40.545360000000002
H      36.151849999999996     42.302550000000004     39.456460000000007
H      35.078850000000003     39.581550000000000     41.960260000000005
H      34.756349999999998     37.126850000000005     40.695560000000000
H      38.836550000000003     34.940749999999994     35.184250000000006
H      40.023350000000008     39.299450000000000     40.375359999999993
H      42.471149999999994     38.418250000000000     39.238460000000003
H      42.380549999999999     36.873049999999992     37.007700000000007
H      35.016149999999996     35.521549999999991     36.200460000000007
H      34.229950000000002     34.654049999999998     37.514760000000003
H      38.362750000000005     40.380450000000003     38.213060000000006
H      33.528850000000006     35.529850000000003     39.103560000000002
H      34.141649999999998     37.579349999999998     39.178759999999997
H      37.465750000000000     33.091549999999998     35.429050000000004
H      36.249250000000004     32.385449999999999     36.451520000000002
H      35.855450000000005     33.566350000000000     35.064190000000004
H      37.303150000000002     32.537750000000003     38.064760000000007
H      37.933949999999996     33.867150000000002     38.695760000000000
H      35.774850000000001     33.278449999999992     38.781460000000003
H      38.113950000000003     41.955849999999998     41.277960000000000
H      36.251850000000005     41.850450000000002     42.073459999999997
H      40.365150000000000     32.921750000000003     33.949150000000003
O      38.203249999999997     40.709049999999998     39.003660000000004
O      40.898049999999998     35.688549999999999     35.287680000000002
