60

C      36.827100000000002     40.428399999999989     37.880199999999995
C      36.340199999999996     39.141399999999990     38.560900000000004
C      41.673699999999997     32.754599999999996     36.951100000000004
C      37.930599999999998     40.253000000000000     36.977700000000006
C      40.483900000000006     32.485799999999998     37.716800000000006
C      37.003000000000000     38.062300000000000     38.185599999999994
C      41.542800000000000     34.030999999999999     36.276200000000003
C      38.224900000000005     33.781799999999990     37.548200000000001
C      37.747500000000002     35.292999999999999     37.426299999999998
C      39.574900000000000     33.496699999999990     37.308300000000003
C      38.316400000000002     38.943099999999994     36.400700000000001
C      40.186499999999995     34.664099999999998     36.492199999999997
C      38.000999999999991     37.819199999999988     37.146400000000000
C      38.529100000000000     36.437399999999997     36.977600000000002
C      39.918099999999995     36.119199999999999     36.640100000000004
C      36.298899999999989     36.803999999999995     38.629200000000004
C      36.640600000000006     35.392799999999994     38.235500000000002
C      36.354799999999997     41.766800000000003     38.223300000000002
C      35.287000000000006     41.646099999999997     39.211900000000007
C      34.746800000000007     40.471199999999996     39.685500000000005
C      35.235200000000006     39.115600000000001     39.506800000000005
C      34.639099999999999     37.971599999999995     40.032699999999998
C      35.080600000000004     36.702799999999996     39.306800000000003
C      37.057500000000005     43.047299999999993     37.960900000000002
C      36.436000000000007     44.206000000000003     38.560100000000006
C      35.212299999999999     44.112200000000001     39.049600000000005
C      34.551099999999991     42.931799999999988     39.466700000000003
C      38.373499999999993     41.542099999999998     36.478000000000002
C      37.810699999999997     42.841799999999992     36.633800000000001
C      37.326399999999992     33.121800000000000     38.531900000000000
C      36.569699999999997     34.202399999999997     39.062900000000006
C      33.764099999999999     40.685099999999991     40.918700000000001
C      32.926999999999992     41.916699999999992     40.809600000000003
C      33.339799999999997     43.024099999999990     40.247299999999996
C      43.010300000000001     31.878699999999995     36.880600000000001
C      42.533199999999994     34.205900000000000     35.189300000000003
C      43.117300000000000     35.490299999999998     35.340800000000002
H      39.206800000000001     37.985499999999995     34.710200000000007
H      42.974999999999994     30.833900000000000     37.563600000000001
H      40.345500000000001     31.995899999999999     38.541000000000004
H      40.804299999999998     36.724499999999999     36.839500000000001
H      33.745699999999999     38.225699999999996     40.411000000000001
H      34.147099999999995     36.004700000000000     39.226200000000006
H      37.008099999999999     45.166100000000000     38.320799999999998
H      34.800399999999996     45.066999999999993     39.540400000000005
H      39.304100000000005     39.710899999999995     34.733799999999995
H      38.019999999999996     43.734700000000004     35.973000000000006
H      39.365099999999998     42.052700000000002     35.824399999999997
H      37.139499999999998     31.918999999999993     38.628300000000003
H      35.870499999999993     34.079099999999997     39.946299999999994
H      33.388500000000008     39.623799999999996     41.246099999999998
H      31.973700000000004     42.008399999999995     41.361799999999995
H      32.550500000000000     43.958199999999991     40.210200000000000
H      34.795500000000004     40.941999999999993     41.587599999999995
H      43.340999999999994     31.505899999999993     35.833900000000007
H      43.760099999999994     32.495099999999994     37.317000000000007
H      42.882099999999994     33.214599999999990     34.412400000000005
H      42.516400000000004     36.077199999999998     36.149200000000008
H      44.026299999999992     35.680399999999999     34.554899999999996
N      38.948300000000003     38.781999999999996     35.190700000000007
