6

C      38.173899999999996     37.552450000000000     38.560199999999995
C      37.783500000000004     37.906750000000002     37.436900000000001
H      37.215699999999998     37.686850000000007     39.324599999999997
H      39.086900000000000     38.288350000000008     38.862699999999997
H      36.913100000000000     38.447550000000000     37.193000000000005
H      38.506999999999998     37.978349999999999     36.675400000000003
