39

C      38.185149999999993     35.881499999999988     38.218449999999990
C      38.534249999999993     34.464300000000009     38.169649999999990
C      34.122750000000003     34.357500000000002     38.002850000000002
C      36.886749999999999     36.533900000000003     37.891649999999998
C      37.453150000000001     33.616600000000005     38.060949999999998
C      34.358249999999998     35.817700000000002     38.100349999999999
C      35.018850000000000     33.543199999999999     37.555749999999996
C      35.876950000000001     35.649299999999997     37.988250000000001
C      36.244549999999997     34.243000000000009     37.897950000000002
C      39.152250000000002     36.833100000000002     38.032449999999997
C      40.524349999999998     36.459400000000002     38.336050000000000
C      40.908450000000002     35.087100000000007     38.573050000000002
C      39.960250000000002     34.076400000000007     38.306749999999994
C      39.831749999999992     39.110799999999998     38.349249999999998
C      41.231149999999992     38.908999999999992     38.611749999999994
C      41.508849999999995     37.451299999999989     38.559449999999998
C      39.510550000000002     41.342399999999998     36.948349999999998
C      39.718449999999997     40.575699999999998     38.008850000000002
C      42.432850000000002     35.149400000000000     39.009549999999990
C      39.819550000000000     42.768799999999999     36.820249999999987
C      33.710949999999997     36.851200000000006     38.827649999999998
H      33.129849999999998     33.933300000000003     37.919249999999998
H      36.806150000000002     37.725200000000001     38.048049999999996
H      37.498249999999999     32.597200000000001     37.965550000000000
H      34.936449999999994     32.492100000000008     37.604450000000000
H      40.275149999999996     33.069200000000009     38.685549999999999
H      42.582249999999995     37.058400000000006     39.156249999999993
H      42.835649999999994     39.842299999999994     39.504150000000003
H      40.118549999999999     40.850800000000007     39.016150000000003
H      43.141849999999998     35.489300000000000     38.363149999999997
H      40.871249999999996     43.041699999999992     36.526349999999994
H      39.550950000000000     43.507899999999992     37.872149999999998
H      39.125549999999990     43.351100000000002     36.122750000000003
H      33.743150000000000     36.532600000000002     39.803649999999998
H      32.858150000000002     37.387200000000007     38.581349999999993
N      39.025849999999991     38.159800000000004     37.952849999999998
O      39.764249999999997     40.863199999999992     35.865249999999996
O      42.866349999999990     35.041100000000000     40.134750000000004
O      42.015450000000001     39.867300000000000     39.059649999999991
