6

C      37.535449999999997     38.336595000000003     37.666914999999996
C      38.311849999999993     37.680695000000000     38.560506000000004
H      37.722149999999999     38.156895000000006     36.502714999999995
H      36.848450000000000     38.952294999999992     38.033914999999993
H      39.151550000000000     37.047705000000008     38.093414999999993
H      38.168549999999996     37.989095000000006     39.497285000000005
