5

C      38.212999999999994     38.307049999999997     38.056799999999996
H      38.602899999999998     38.857849999999999     38.814599999999999
H      37.126100000000001     38.134950000000003     37.626500000000000
H      38.603499999999997     37.142150000000001     38.297600000000003
H      38.873899999999999     38.271250000000002     37.185400000000001
