6

C      37.940299999999993     37.301599999999993     37.925249999999991
C      37.935400000000001     38.723600000000005     38.309349999999995
H      38.066400000000002     36.896100000000004     36.839849999999998
H      38.706000000000003     39.381999999999991     37.869450000000001
H      38.689599999999999     36.618000000000009     38.447749999999999
H      37.293999999999997     39.017099999999999     39.160150000000002
