69

C      35.942200000000000     37.694359999999996     36.983349999999994
C      40.300900000000013     37.979759999999999     42.083249999999992
C      36.928799999999995     38.753459999999997     36.800150000000002
C      40.542100000000005     38.916960000000003     41.080449999999992
C      35.838600000000000     36.636960000000002     38.010149999999996
C      40.072100000000006     36.530160000000002     41.622450000000001
C      37.699799999999996     38.897960000000005     38.009550000000004
C      39.885300000000001     38.616759999999999     39.843849999999996
C      37.188199999999995     35.201160000000002     39.314650000000000
C      38.333100000000002     35.108960000000003     40.285950000000000
C      37.019400000000005     36.573060000000005     38.830150000000003
C      39.049599999999998     36.180759999999999     40.507849999999998
C      37.976500000000001     37.715259999999994     38.962650000000004
C      39.119400000000013     37.404360000000004     39.595050000000001
C      38.416100000000000     40.114360000000005     38.108249999999998
C      39.461700000000008     39.926259999999992     39.232650000000000
C      35.563199999999995     37.342559999999999     35.674250000000001
C      36.245600000000010     37.652760000000001     34.385150000000003
C      37.194400000000002     38.751759999999997     34.533349999999999
C      37.211300000000008     39.606859999999998     35.709250000000004
C      38.147400000000005     40.698260000000005     35.823449999999994
C      38.515300000000011     41.045259999999999     37.076049999999995
C      35.332300000000004     35.302860000000003     37.862949999999998
C      36.056700000000006     34.527160000000002     38.741650000000000
C      34.380100000000013     36.455560000000006     35.505250000000004
C      40.727800000000002     40.400559999999999     40.974850000000004
C      41.706500000000005     41.113960000000006     41.790949999999995
C      40.180700000000002     41.013960000000004     39.793450000000000
C      40.903300000000002     35.325260000000000     41.370049999999992
C      40.075100000000006     34.077560000000005     41.589950000000002
C      42.055199999999999     42.435060000000007     41.490050000000004
C      42.257500000000007     43.297359999999998     42.796550000000003
C      37.665800000000004     32.806739999999998     41.055549999999997
C      42.219900000000010     42.976759999999992     40.375250000000001
C      33.724299999999999     35.972860000000004     34.507050000000000
C      38.030100000000004     38.978160000000003     33.308549999999990
C      35.935700000000011     36.787760000000006     33.208750000000002
C      39.043400000000005     42.460260000000005     37.489650000000005
H      34.424200000000013     34.995860000000000     37.396050000000002
H      35.863300000000010     33.564380000000000     38.831450000000004
H      34.079000000000008     36.590860000000006     36.608850000000004
H      42.213800000000006     40.505159999999997     42.688250000000004
H      42.489400000000003     44.330959999999997     42.445149999999998
H      39.852400000000003     42.358359999999998     40.029250000000005
H      42.034499999999994     35.210160000000002     41.252650000000003
H      39.650200000000012     34.028390000000002     42.590449999999997
H      40.542800000000000     33.301660000000005     41.096249999999998
H      43.250600000000006     43.026959999999995     43.059749999999994
H      41.774500000000003     42.813960000000002     43.794049999999999
H      36.488100000000003     33.067660000000004     41.286749999999991
H      39.417700000000011     41.920360000000002     35.221450000000004
H      41.314400000000006     38.925659999999993     43.371250000000003
H      41.990899999999996     44.046760000000006     40.173949999999991
H      42.408400000000000     42.197160000000004     39.455950000000001
H      33.790100000000010     35.937760000000004     33.428350000000002
H      32.749399999999994     35.201660000000004     34.444250000000004
H      35.954999999999998     35.734960000000001     33.113150000000005
H      37.726000000000013     38.292360000000002     32.205950000000001
H      38.990399999999994     38.503760000000000     33.250050000000002
H      35.140600000000006     37.354759999999999     32.626149999999996
H      36.992800000000003     36.777260000000005     32.601950000000002
H      38.609300000000005     43.204260000000005     36.740949999999998
H      40.030000000000001     42.807559999999995     37.614649999999997
H      38.522000000000006     42.925559999999997     38.449949999999994
H      38.369400000000013     40.051060000000000     33.036850000000001
N      38.498800000000003     34.082260000000005     41.116749999999996
O      38.052100000000010     31.669040000000003     40.991549999999997
O      38.675799999999995     41.516059999999996     34.910650000000004
O      40.605699999999999     38.283960000000000     43.335650000000001
