43

C      36.637299999999996     35.682074999999990     36.777099999999997
C      37.167100000000005     35.290205000000000     38.176600000000008
C      37.016000000000005     40.285624999999996     38.022900000000007
C      37.712600000000002     39.957524999999997     39.230800000000002
C      36.774600000000000     37.024744999999996     36.433800000000005
C      37.423100000000005     36.167674999999996     38.969400000000000
C      36.044699999999999     39.368024999999989     37.344900000000010
C      37.647700000000000     38.554504999999992     39.801600000000001
C      36.790200000000006     37.978214999999992     37.470199999999998
C      37.446899999999992     37.636044999999996     38.623300000000008
C      36.186199999999999     34.786045000000001     35.744900000000008
C      36.009800000000006     33.474384999999998     36.242300000000007
C      36.010300000000001     33.087534999999995     37.592900000000007
C      36.563899999999997     33.942664999999998     38.566500000000005
C      36.913299999999992     41.724924999999992     37.740800000000000
C      37.810100000000006     42.391924999999993     38.570800000000006
C      38.991600000000005     41.880424999999995     39.296800000000005
C      38.927800000000005     40.589624999999991     39.707900000000002
C      37.409100000000002     43.861125000000001     38.577800000000011
C      36.301300000000005     33.672775000000001     39.949999999999996
C      35.665500000000002     32.384724999999996     40.465100000000000
C      40.159400000000005     42.784025000000000     39.488199999999999
C      37.226699999999994     35.909095000000001     40.416900000000005
H      35.544400000000003     32.160595000000001     37.758600000000001
H      40.599200000000003     43.327424999999998     38.423800000000000
H      38.338900000000002     38.227114999999998     40.412900000000000
H      36.056699999999999     35.097014999999999     34.738500000000002
H      35.434500000000000     32.682344999999998     35.769200000000005
H      36.174099999999996     42.104824999999991     36.966100000000004
H      39.675900000000006     39.991225000000000     40.250499999999995
H      38.177199999999992     44.405825000000000     39.098600000000005
H      36.332900000000002     36.424124999999989     40.875800000000005
H      35.538700000000006     31.594175000000000     39.591600000000007
H      36.289999999999999     31.912054999999995     41.227100000000007
H      36.867400000000004     38.517544999999998     35.282800000000009
H      41.497399999999999     42.611525000000000     39.534299999999995
H      40.284199999999998     42.986924999999999     40.573200000000007
H      35.092700000000001     32.949784999999999     41.261499999999998
H      37.938300000000005     36.449574999999996     41.082400000000000
O      36.885399999999997     44.052024999999993     37.486500000000007
O      36.718100000000000     34.458364999999993     40.824199999999998
O      36.920699999999997     37.528284999999997     35.227399999999996
S      34.502600000000001     39.912524999999995     36.808300000000003
