8

C      38.576549999999997     38.249449999999996     38.363419999999991
C      37.455650000000006     37.792249999999996     37.430620000000005
H      38.144650000000006     38.214150000000004     39.448779999999999
H      39.537450000000000     37.554649999999995     38.280020000000007
H      39.048450000000010     39.133449999999996     37.718719999999990
H      38.004349999999995     37.640950000000004     36.551220000000001
H      36.462550000000000     38.302549999999997     37.084020000000010
H      37.204150000000006     36.866550000000004     37.867820000000009
