87

C      38.459949999999992     40.152400000000000     34.044200000000004
C      38.415450000000007     38.582200000000000     34.022999999999996
C      33.705050000000000     40.142000000000003     34.724500000000006
C      37.265049999999988     40.994799999999998     34.100400000000008
C      37.267550000000000     38.129200000000004     34.648700000000005
C      34.885050000000007     40.834299999999999     34.543599999999998
C      34.725949999999997     38.124500000000005     34.365499999999997
C      35.967449999999985     40.172499999999999     34.059500000000000
C      35.980550000000008     38.833199999999998     34.531099999999995
C      39.700749999999999     40.468400000000003     34.640600000000006
C      40.899949999999990     39.790100000000002     34.654300000000006
C      40.970749999999995     38.484200000000001     34.318100000000001
C      39.715649999999997     37.999800000000000     33.803699999999992
C      39.767249999999990     41.809900000000006     35.277299999999997
C      41.066350000000000     42.278899999999993     35.978600000000000
C      42.251849999999990     40.344000000000001     35.130399999999995
C      38.730649999999997     42.710800000000006     35.241000000000000
C      37.414450000000002     42.310899999999997     34.735900000000001
C      36.321750000000009     42.920399999999994     35.417900000000003
C      36.155749999999998     44.209799999999994     36.170100000000005
C      37.236249999999998     45.136599999999994     36.396100000000004
C      34.907849999999996     42.310200000000002     35.436900000000009
C      33.520550000000000     38.963700000000003     33.986199999999997
C      41.024050000000003     43.591199999999994     36.375500000000002
C      37.148049999999998     37.348800000000004     35.899900000000002
C      38.276750000000007     37.853100000000005     38.754700000000000
C      39.687650000000005     37.394600000000004     38.808999999999997
C      36.825749999999999     33.694000000000003     40.736999999999995
C      38.113950000000003     33.137500000000003     40.750500000000002
C      37.190750000000008     36.839300000000001     38.730000000000004
C      40.073249999999987     36.010299999999994     38.694100000000006
C      36.643250000000009     35.047100000000000     40.075800000000001
C      39.097650000000002     33.982299999999995     40.091899999999995
C      37.685650000000010     35.638300000000001     39.484800000000007
C      39.034349999999989     35.214200000000005     39.478700000000003
C      37.753250000000008     39.203500000000005     38.625799999999998
C      38.934849999999997     39.981100000000005     38.379500000000007
C      40.313749999999999     39.770700000000005     38.432699999999997
C      40.597749999999991     38.428100000000001     38.734899999999996
C      35.796850000000006     32.872399999999999     41.396400000000000
C      35.962350000000001     31.392799999999998     41.903500000000008
C      37.295450000000002     31.188900000000004     42.134699999999995
C      38.221050000000005     31.840399999999999     41.222400000000007
C      36.414049999999989     39.618400000000001     38.320800000000006
C      36.171650000000000     40.999400000000001     38.425799999999995
C      37.348550000000003     41.827600000000004     38.076999999999998
C      38.635750000000002     41.428699999999999     38.314499999999995
C      36.049250000000001     37.500800000000005     36.705900000000000
C      35.960849999999994     36.821600000000004     38.000299999999996
C      34.940950000000001     36.395000000000003     38.949700000000007
C      35.304850000000002     35.617800000000003     39.991699999999994
C      41.475849999999994     35.625400000000006     38.822900000000004
C      42.305049999999994     36.838000000000001     39.075699999999998
C      41.993349999999992     38.167100000000005     38.656900000000007
C      39.652649999999994     31.539400000000001     41.377400000000009
H      35.100750000000005     30.980000000000004     42.290700000000001
H      35.127949999999998     41.282500000000006     38.444199999999995
H      34.554449999999989     37.056600000000003     34.342500000000001
H      41.841650000000001     37.967200000000005     34.635599999999997
H      39.713449999999995     36.879300000000001     33.423400000000001
H      38.741749999999996     43.733500000000006     35.733999999999995
H      35.392349999999993     44.717399999999998     36.639200000000002
H      34.569350000000000     42.192300000000003     36.443100000000001
H      34.218950000000007     43.056700000000006     35.034999999999997
H      32.820149999999998     38.312000000000005     34.088899999999995
H      32.679450000000003     40.641900000000007     35.117199999999997
H      40.144250000000000     44.271700000000003     36.331000000000003
H      41.323849999999993     43.683900000000001     37.467700000000008
H      37.871150000000000     36.499599999999994     36.262400000000000
H      39.966649999999987     33.432800000000000     40.359099999999998
H      41.257749999999987     40.634600000000006     38.192999999999998
H      34.804649999999995     33.260800000000003     41.319699999999997
H      37.661749999999998     30.152500000000003     42.576599999999999
H      35.719650000000001     38.984100000000005     38.733800000000002
H      37.257850000000005     42.959400000000002     37.878900000000002
H      39.548950000000005     42.160199999999996     38.239699999999999
H      35.222149999999999     38.289700000000003     36.672399999999996
H      34.577050000000000     35.046500000000002     40.611500000000007
H      34.038150000000002     36.852100000000000     39.174900000000008
H      41.803849999999997     34.807099999999998     39.288399999999996
H      43.320549999999997     36.645600000000002     39.595900000000000
H      42.676950000000005     38.995100000000001     38.711200000000005
H      40.370850000000004     32.342800000000004     41.168800000000005
N      42.109150000000000     41.433100000000003     35.925100000000000
O      38.159549999999996     45.847499999999997     36.552800000000005
O      43.312049999999999     39.789500000000004     34.930700000000002
O      39.800349999999995     30.318100000000001     41.619900000000001
