6

C      37.454599999999992     38.413049999999991     38.158449999999988
C      38.528399999999991     37.664850000000001     37.788750000000007
H      36.842399999999998     38.985749999999996     37.498449999999991
H      37.162499999999994     38.490350000000007     39.197749999999999
H      39.036199999999994     37.783550000000005     36.802250000000001
H      39.157600000000002     37.014250000000004     38.661050000000003
