40

C      38.469899999999996     37.887099999999990     37.049149999999990
C      39.315799999999996     39.050399999999996     36.592950000000002
C      37.667499999999990     40.512100000000004     41.145249999999997
C      38.688199999999995     41.583100000000002     40.993749999999999
C      37.685199999999995     38.395499999999998     38.199449999999999
C      39.690199999999990     40.064599999999999     37.529949999999999
C      37.482500000000002     39.498799999999989     40.213349999999998
C      39.624200000000002     41.284700000000001     39.978149999999999
C      38.145499999999998     39.443300000000008     39.010150000000003
C      39.354100000000003     40.274899999999988     38.905949999999990
C      38.111699999999999     36.664600000000007     36.440949999999994
C      38.786199999999994     36.623099999999994     35.165849999999999
C      39.681899999999999     38.718999999999994     35.275750000000002
C      36.723399999999998     37.297700000000006     38.615650000000002
C      36.747000000000000     35.828400000000002     38.431750000000001
C      37.810199999999995     35.329699999999988     37.417249999999996
C      35.397700000000000     37.661799999999999     39.129549999999995
C      39.062299999999993     34.557400000000001     37.656450000000000
C      40.421499999999995     35.272599999999997     37.675249999999991
C      36.245399999999989     34.775900000000007     39.127849999999995
C      40.961999999999989     36.282100000000000     38.289050000000003
C      38.757800000000003     35.150199999999998     34.543750000000003
H      38.456999999999994     42.555899999999994     41.548549999999992
H      40.613799999999998     40.571899999999999     36.968950000000000
H      36.714900000000000     38.713300000000004     40.158149999999999
H      40.457700000000003     41.896599999999992     40.176449999999996
H      40.003399999999999     39.752899999999997     34.983449999999998
H      37.192099999999996     34.810699999999997     36.523249999999997
H      36.359299999999990     33.719999999999999     38.767749999999999
H      35.463099999999997     35.065300000000008     39.913850000000004
H      40.352599999999995     36.823200000000000     38.960049999999995
H      41.167499999999990     35.013000000000005     36.986649999999997
H      41.703800000000001     36.686499999999995     37.691349999999993
H      38.708899999999986     34.262900000000002     35.160750000000000
H      37.839699999999993     35.211700000000008     33.963349999999998
H      39.423400000000001     34.615700000000004     33.947949999999999
N      39.338699999999989     37.596599999999995     34.555750000000003
O      34.296199999999999     38.031599999999997     39.311149999999998
O      39.292799999999986     33.444100000000006     37.393149999999999
O      36.903700000000001     40.818500000000000     42.052050000000001
