9

C      37.406149999999997     37.128399999999999     38.478849999999994
C      37.470050000000001     38.682100000000005     38.453049999999998
C      38.432049999999990     39.184299999999993     37.579550000000005
H      38.292850000000001     36.592699999999994     38.042649999999995
H      36.643450000000001     37.161100000000005     37.545749999999991
H      37.576149999999998     38.765299999999996     39.546950000000002
H      36.886449999999996     36.816800000000001     39.471849999999989
H      39.356549999999999     39.407300000000006     38.133649999999996
H      38.556349999999995     39.307900000000004     36.453049999999998
