6

C      38.338349999999991     38.714999999999989     38.036199999999994
C      37.409050000000001     37.652099999999997     37.756100000000004
H      38.234749999999998     39.546100000000003     37.384200000000007
H      39.476149999999997     38.522199999999984     38.615799999999993
H      37.617049999999999     36.453899999999997     37.822400000000002
H      36.523850000000003     38.235799999999990     37.471100000000007
