50

C      38.839329999999997     37.970039999999983     37.173299999999990
C      39.452529999999996     36.924300000000002     36.495999999999995
C      43.035729999999994     39.878249999999994     36.749399999999994
C      39.670730000000006     38.867130000000003     38.034299999999995
C      40.964229999999993     37.098119999999994     36.291799999999988
C      42.171529999999997     39.910669999999996     37.841899999999995
C      41.052830000000000     38.952469999999991     37.729199999999999
C      41.641029999999994     38.250149999999991     36.660100000000000
C      37.430830000000000     38.022129999999990     37.082699999999996
C      36.543930000000003     37.215459999999993     36.091699999999996
C      37.153530000000003     36.024079999999998     35.551499999999997
C      38.457930000000005     35.982549999999989     36.008799999999994
C      36.676630000000003     39.081149999999994     37.779499999999999
C      35.150240000000004     39.117019999999997     37.827699999999993
C      34.463730000000005     38.043549999999996     37.227099999999986
C      35.207880000000003     37.207929999999990     36.443899999999999
C      37.508130000000008     40.078659999999999     38.340199999999996
C      38.910130000000002     39.994109999999992     38.498299999999993
C      39.421130000000005     41.085389999999990     39.399599999999985
C      42.102630000000005     40.986319999999992     39.028899999999993
C      41.429929999999999     35.915729999999996     35.642499999999998
C      39.328430000000004     34.941696999999991     35.411499999999997
C      32.965680000000006     38.106150000000000     37.220699999999994
C      32.479530000000004     39.334339999999983     37.780699999999996
C      40.882230000000000     40.846909999999994     40.039299999999990
C      42.920330000000007     35.773039999999995     35.465599999999988
C      43.553930000000008     35.641489999999990     36.942299999999996
H      39.896430000000002     41.943950000000001     38.831999999999987
H      43.977130000000002     40.568550000000002     36.542800000000000
H      36.676830000000002     35.198306000000002     34.949500000000000
H      34.598260000000003     39.688540000000003     38.611499999999992
H      34.619270000000000     36.343750000000000     36.037300000000002
H      36.967330000000004     40.963889999999992     38.536799999999992
H      38.766830000000006     41.813419999999994     39.724800000000002
H      42.954830000000001     40.922460000000001     39.491500000000002
H      41.987130000000008     41.901839999999993     38.494299999999996
H      38.640730000000005     34.056049999999999     35.085299999999997
H      31.475870000000008     39.299429999999987     38.470100000000002
H      32.887890000000006     39.608559999999997     38.818399999999997
H      32.609760000000009     40.107599999999991     36.857799999999997
H      41.106629999999996     41.470609999999994     41.062100000000001
H      40.932630000000003     39.688209999999998     40.444099999999999
H      43.277230000000003     36.662880000000001     34.960099999999997
H      43.130329999999994     34.901111000000000     34.937899999999999
H      43.106130000000000     34.892426999999998     37.351499999999994
H      44.524129999999992     35.348741999999987     36.948399999999992
H      43.133329999999994     36.195470000000000     37.607999999999997
N      42.749629999999996     38.813759999999988     36.129999999999995
N      40.607530000000004     34.925775999999999     35.357299999999995
O      32.375700000000002     37.625289999999993     36.284499999999994
