42

C      39.278399999999991     38.254749999999994     35.273849999999996
C      33.911400000000000     39.570550000000004     38.690349999999995
C      39.158700000000003     37.344149999999999     36.270049999999998
C      38.252200000000002     38.998550000000002     34.581850000000003
C      34.389699999999998     40.490050000000004     37.744349999999997
C      37.995299999999993     37.453050000000005     37.212850000000003
C      35.850200000000001     38.223850000000006     38.623149999999995
C      36.152100000000004     40.392950000000006     35.715549999999993
C      37.196700000000000     39.278150000000004     35.480449999999990
C      35.481999999999999     40.096449999999997     36.998849999999990
C      37.086600000000004     38.373450000000005     36.562949999999987
C      36.187899999999992     38.828050000000005     37.394049999999993
C      37.742200000000004     36.676349999999992     38.410749999999993
C      36.714999999999996     37.404550000000000     39.352849999999989
C      40.502099999999999     37.893849999999993     34.457549999999998
C      41.362200000000001     36.892250000000004     34.814949999999996
C      41.170800000000000     36.087149999999994     36.070949999999996
C      39.937500000000000     36.243750000000006     36.868249999999989
C      39.571700000000000     35.296050000000001     37.882350000000002
C      38.468100000000000     35.573449999999994     38.764049999999983
C      42.387999999999998     36.883650000000003     33.785349999999994
C      42.308099999999996     35.517850000000003     36.660549999999986
C      35.863500000000002     38.093050000000005     41.477049999999991
C      36.527999999999999     37.091850000000001     40.680750000000003
C      36.273299999999999     38.224150000000002     42.824349999999995
H      37.124800000000000     36.209750000000000     41.288449999999983
H      42.754899999999992     35.674049999999994     32.404849999999996
H      33.642699999999998     41.199150000000003     37.738649999999993
H      38.380099999999992     39.655450000000002     33.767349999999993
H      32.832400000000000     39.651949999999999     38.755349999999993
H      35.986400000000003     41.377350000000000     35.127150000000000
H      40.837799999999994     38.259950000000003     33.423349999999999
H      43.167600000000000     35.744350000000004     36.057850000000002
H      40.164600000000000     34.622650000000000     38.537549999999996
H      38.461199999999998     35.195350000000005     39.724649999999997
H      42.212600000000002     35.240550000000006     37.815649999999991
H      42.871099999999998     37.672550000000001     33.252249999999989
H      34.828800000000001     38.850950000000005     41.189650000000000
H      36.755400000000002     37.445150000000005     43.595150000000004
H      35.741100000000003     39.054049999999997     43.262049999999988
N      34.476199999999999     38.387450000000001     39.035049999999984
O      42.705399999999997     35.608450000000005     33.288849999999996
