98

C      38.457499999999996     34.905749999999998     41.112699999999997
C      39.152000000000008     34.822149999999993     42.367600000000003
C      35.020600000000009     32.628249999999994     43.604800000000004
C      34.999400000000001     33.832449999999994     44.514700000000005
C      37.103600000000007     34.309349999999995     40.919400000000003
C      38.485300000000002     34.895849999999996     43.657599999999995
C      35.627600000000008     33.023849999999996     42.310300000000005
C      35.972100000000005     34.841849999999994     44.332000000000001
C      36.601000000000006     33.991849999999985     42.211200000000005
C      37.108100000000000     34.549749999999989     43.475300000000004
C      38.929099999999998     35.654049999999998     39.950800000000001
C      40.201200000000007     36.372050000000002     39.991900000000001
C      40.726099999999995     36.557149999999993     41.296300000000002
C      40.242699999999999     35.849849999999989     42.436600000000006
C      34.093700000000005     31.492650000000001     43.612800000000000
C      33.279400000000003     31.511250000000000     44.787000000000006
C      33.150300000000009     32.633150000000001     45.712500000000006
C      34.221100000000000     33.537349999999989     45.618300000000005
C      38.174299999999995     35.602249999999998     38.711900000000007
C      38.678000000000004     36.143049999999988     37.573699999999995
C      39.904000000000003     36.868749999999991     37.467900000000007
C      40.815400000000004     36.820349999999991     38.670100000000005
C      36.234300000000005     34.152349999999998     39.678900000000006
C      36.797200000000004     34.993349999999992     38.715000000000003
C      39.196299999999994     35.767649999999989     44.570899999999995
C      39.877300000000005     36.649649999999994     43.672300000000000
C      35.680700000000009     35.361449999999991     37.761300000000006
C      34.135400000000004     43.823449999999994     34.682599999999994
C      34.218200000000003     42.458549999999988     35.236699999999999
C      40.917100000000005     43.690349999999995     32.084100000000007
C      39.773600000000009     40.159749999999988     35.358000000000004
C      34.859900000000003     43.968849999999989     33.292500000000004
C      41.194499999999998     42.467949999999988     32.737200000000001
C      40.704900000000002     40.782449999999997     34.521200000000007
C      39.488199999999999     43.998849999999990     31.814400000000006
C      35.481700000000004     41.776649999999989     35.068600000000004
C      38.318900000000006     40.361649999999997     35.108800000000002
C      37.301700000000004     43.994949999999989     32.804800000000007
C      40.219100000000005     41.601149999999990     33.498200000000004
C      36.234399999999994     43.311650000000000     33.486300000000000
C      38.647800000000004     43.267649999999989     32.871400000000001
C      36.486400000000003     42.042749999999998     34.224700000000006
C      37.812799999999996     41.509549999999990     34.480000000000004
C      38.829500000000003     42.137450000000001     33.689300000000003
C      33.134900000000009     44.816949999999991     35.002300000000005
C      32.478200000000008     44.256450000000001     36.150600000000004
C      32.594200000000008     43.030850000000001     36.761500000000005
C      33.357100000000003     42.078749999999999     36.302800000000005
C      41.896200000000000     44.306749999999994     31.254000000000005
C      43.233699999999999     43.911749999999998     31.369300000000003
C      43.461700000000000     42.591650000000001     31.889700000000005
C      42.441300000000005     41.976050000000001     32.616300000000003
C      33.080400000000004     40.628850000000000     36.838500000000003
C      40.178600000000003     39.271450000000002     36.452700000000007
C      39.075800000000008     43.387949999999989     30.432399999999998
H      40.026499999999999     45.829049999999995     32.416300000000007
H      35.229600000000005     32.348749999999995     41.480000000000004
H      35.813500000000005     35.583349999999996     45.146500000000003
H      41.462599999999995     37.132049999999992     41.503999999999998
H      32.890500000000003     30.589949999999991     45.122800000000005
H      32.481300000000005     32.686749999999989     46.430599999999998
H      34.048400000000008     34.294349999999994     46.410800000000002
H      38.064399999999999     35.835549999999998     36.866100000000003
H      35.352900000000005     33.593949999999992     39.615600000000001
H      36.081700000000005     36.130749999999992     36.916400000000003
H      38.663199999999996     36.149850000000001     45.438300000000005
H      40.342399999999998     37.529249999999990     44.065500000000000
H      33.311900000000001     30.110049999999998     42.306800000000003
H      40.793400000000005     35.414649999999995     36.551200000000001
H      35.049299999999995     34.535049999999998     37.419900000000005
H      35.184199999999997     36.198250000000002     37.986400000000003
H      34.976199999999999     44.958950000000002     32.933899999999994
H      41.581299999999999     36.188149999999993     38.678300000000007
H      34.351000000000006     43.410349999999994     32.413200000000003
H      41.744199999999999     40.485849999999999     34.628900000000002
H      35.857500000000009     40.955449999999999     35.664200000000001
H      37.645400000000002     39.419449999999998     35.679200000000002
H      37.140900000000009     45.004449999999991     32.308899999999994
H      33.221900000000005     45.889949999999999     35.072900000000004
H      31.631900000000002     44.866149999999990     36.549200000000006
H      31.878099999999996     42.713749999999990     37.525000000000006
H      43.998400000000004     44.207349999999991     30.679200000000002
H      44.368099999999998     42.141149999999996     31.471800000000002
H      42.781900000000007     41.043549999999996     33.228500000000004
H      32.011299999999999     40.561049999999994     37.296700000000001
H      42.529699999999998     45.758449999999996     30.041000000000004
H      41.205600000000004     39.197549999999993     36.729500000000002
H      38.237500000000004     43.837249999999997     30.017300000000006
H      39.729800000000004     43.617849999999990     29.569400000000002
H      39.094700000000003     42.270849999999996     30.655400000000007
H      41.985000000000007     38.642349999999993     39.062900000000006
O      39.300399999999996     45.520349999999993     31.902800000000006
O      41.381799999999998     38.035749999999993     39.360600000000005
O      34.031200000000005     30.509849999999989     42.674900000000001
O      40.827100000000009     36.421949999999995     36.485600000000005
O      33.901000000000003     39.706750000000000     36.909300000000002
O      41.713299999999997     45.264749999999992     30.295100000000005
O      39.485400000000006     38.267649999999989     36.814900000000002
