40

C      38.399499999999996     38.570099999999996     37.621849999999995
C      38.188700000000004     39.868299999999991     38.274950000000004
C      39.826500000000003     40.991000000000000     33.956950000000006
C      39.224199999999996     38.178399999999996     36.522550000000010
C      38.070300000000003     40.957800000000006     37.289650000000009
C      39.910999999999994     39.629199999999997     34.415750000000003
C      39.062200000000004     41.693500000000000     35.056550000000001
C      39.400100000000002     39.364500000000007     35.718750000000000
C      38.830499999999994     40.710899999999995     36.088949999999997
C      37.869800000000005     37.400400000000005     38.468850000000003
C      37.459200000000003     37.608900000000006     39.806849999999997
C      37.373800000000003     39.001199999999997     40.299850000000006
C      37.987200000000001     40.162500000000009     39.659149999999997
C      37.735100000000003     36.226399999999998     37.844449999999995
C      37.256000000000000     35.173100000000005     38.755650000000003
C      36.906700000000001     35.179299999999998     40.117149999999995
C      36.776900000000005     36.556799999999996     40.539349999999999
C      38.617600000000003     36.862300000000005     35.948350000000005
C      37.082999999999998     40.386299999999991     42.097850000000008
C      37.671900000000008     41.453800000000001     41.493050000000011
C      36.256000000000000     36.724099999999993     41.935749999999999
C      37.015200000000007     42.087400000000002     37.351250000000007
C      37.029200000000003     33.840000000000003     37.963650000000001
H      37.956900000000005     33.061199999999999     37.844849999999994
H      36.814700000000002     34.431500000000000     40.823549999999997
H      39.798900000000003     40.956699999999998     32.861750000000001
H      40.297499999999999     38.889299999999992     33.750050000000002
H      38.855500000000006     42.849699999999999     34.933750000000003
H      38.779199999999996     36.711200000000005     34.837150000000008
H      36.621200000000002     40.471199999999996     43.138249999999999
H      37.626400000000004     42.196399999999997     42.128149999999991
H      36.276000000000003     37.563800000000001     42.591149999999999
H      37.542399999999994     42.938800000000001     37.060550000000006
H      36.362699999999997     42.426200000000009     36.460549999999998
H      36.698000000000008     42.191999999999993     38.497550000000004
N      38.130500000000005     35.853899999999996     36.511550000000000
N      36.863200000000006     39.237799999999993     41.461150000000004
N      38.121600000000001     41.322900000000004     40.285650000000004
O      35.702500000000001     35.762600000000006     42.392849999999996
S      35.946500000000000     33.584199999999996     36.855850000000004
