5

C      37.842900000000000     38.099499999999992     37.960695000000001
H      37.892099999999999     37.049999999999997     37.662285000000011
H      38.797600000000003     38.639699999999991     38.432265000000001
H      37.715100000000007     38.950000000000003     37.065205000000006
H      37.202399999999997     38.215999999999994     38.934794999999994
