57

C      38.945999999999998     41.844299999999990     33.795999999999992
C      33.241600000000005     39.353899999999996     39.160200000000003
C      39.952200000000005     37.385800000000003     39.633899999999997
C      39.570100000000004     38.655199999999994     39.180900000000001
C      35.499000000000002     36.470200000000006     41.212699999999991
C      35.043700000000008     37.606000000000009     40.558500000000009
C      38.916300000000000     36.416899999999998     39.645899999999997
C      38.240500000000004     39.340599999999995     39.413499999999992
C      36.765200000000000     36.067900000000009     41.043500000000002
C      35.944400000000009     38.726600000000005     40.260599999999997
C      37.472499999999997     36.871499999999997     40.161499999999997
C      37.250500000000002     38.347200000000001     39.885500000000008
C      41.350800000000000     37.280500000000004     39.674199999999992
C      42.265500000000003     38.439099999999996     39.421900000000008
C      41.728299999999997     39.336600000000004     38.409199999999998
C      40.272300000000001     39.260300000000001     38.125500000000002
C      34.684699999999999     35.493300000000005     42.042799999999993
C      33.365700000000004     36.011800000000008     42.365400000000008
C      32.654299999999999     36.848799999999997     41.474500000000006
C      33.511100000000006     37.670500000000004     40.581400000000002
C      41.871800000000000     36.010700000000000     39.996699999999997
C      43.144599999999997     36.103600000000000     40.752700000000004
C      43.967900000000007     37.251900000000006     40.548100000000005
C      43.604299999999995     38.440700000000007     39.972400000000007
C      39.525999999999996     35.057599999999994     39.918599999999998
C      40.862500000000004     34.995999999999995     40.209499999999998
C      38.014400000000002     40.387900000000002     38.495299999999993
C      39.641100000000002     41.046099999999996     36.468600000000009
C      39.278599999999997     40.311000000000007     37.723499999999994
C      39.036899999999996     40.992900000000006     35.059600000000003
C      43.327199999999998     35.114899999999999     41.784999999999989
C      33.100000000000001     37.915300000000002     39.213599999999992
C      31.158899999999999     36.924900000000008     41.345500000000001
H      37.825900000000004     42.061499999999995     33.612600000000000
H      42.619400000000006     34.210400000000000     42.015999999999998
H      39.523799999999994     41.731600000000000     32.983699999999999
H      32.861100000000000     39.906899999999993     38.206500000000005
H      32.897000000000006     39.979899999999986     39.798299999999998
H      34.265900000000009     39.670500000000004     39.246200000000002
H      36.997000000000007     35.116399999999999     41.355000000000004
H      35.420000000000002     39.700199999999995     40.232300000000009
H      42.374700000000004     39.741100000000003     37.609800000000007
H      34.902500000000003     34.554200000000002     42.534099999999995
H      32.861800000000002     35.523700000000005     43.016300000000001
H      45.186000000000000     37.456500000000005     40.905799999999992
H      44.217599999999990     39.422100000000000     39.951900000000002
H      41.177999999999997     33.938500000000005     40.591499999999989
H      38.665100000000002     34.343699999999998     40.325900000000004
H      37.070100000000004     41.039500000000004     38.382000000000005
H      40.384999999999998     41.813800000000001     36.908600000000000
H      38.880100000000006     39.924400000000006     35.225600000000000
H      43.434400000000004     35.724000000000004     42.763500000000008
H      32.074300000000001     37.824200000000005     38.690499999999993
H      33.614800000000002     37.215699999999998     38.423699999999990
H      30.814000000000000     37.343599999999995     40.335499999999989
H      30.823999999999998     35.897199999999998     41.552299999999995
H      30.865399999999998     37.414699999999996     42.430599999999998
