41

C      38.511349999999993     38.664099999999991     35.392304999999993
C      37.181650000000005     37.951599999999999     42.173424999999995
C      38.758150000000001     37.468600000000009     36.093594999999993
C      37.632550000000009     36.958600000000004     41.290025000000000
C      37.985050000000001     39.936499999999995     35.954284999999992
C      36.687849999999997     39.032999999999987     41.516524999999994
C      38.348550000000003     37.320000000000007     37.397984999999998
C      37.478050000000010     36.867599999999996     39.885725000000001
C      37.188350000000000     39.621799999999993     37.134094999999995
C      36.531250000000000     39.214900000000000     40.134584999999994
C      37.592250000000007     38.450100000000006     38.049584999999993
C      37.343750000000000     38.270200000000003     39.389244999999995
C      38.505750000000006     36.057499999999990     38.141594999999995
C      37.684849999999997     35.711500000000001     38.912794999999988
C      39.238750000000010     38.718500000000006     34.069264999999994
C      39.874250000000004     37.598900000000000     33.458635000000001
C      39.992150000000009     36.336799999999997     34.071494999999999
C      39.454949999999997     36.278300000000002     35.411424999999994
C      39.121250000000003     34.994300000000010     35.979324999999996
C      38.912649999999999     34.838099999999997     37.317945000000002
C      37.787950000000009     41.336600000000004     35.343744999999991
C      38.723849999999999     41.430800000000005     34.025945000000000
C      39.342849999999999     40.136799999999994     33.530544999999989
H      35.132350000000002     38.937300000000008     38.701374999999992
H      35.194650000000010     40.600600000000000     39.528164999999994
H      37.005750000000006     37.927900000000008     43.422924999999999
H      38.148449999999997     36.036600000000007     41.662224999999999
H      36.188650000000010     39.853499999999997     42.143825000000000
H      36.459950000000006     40.340800000000002     37.384654999999995
H      40.527349999999998     38.139600000000002     32.981484999999999
H      40.867649999999998     35.815200000000004     33.761604999999996
H      39.186650000000000     34.201400000000007     35.247084999999991
H      39.018349999999998     33.788499999999999     37.657795000000000
H      36.792150000000007     41.614299999999986     34.979115000000000
H      38.027749999999997     42.104299999999995     36.177444999999999
H      39.435550000000006     42.211500000000001     34.516174999999997
H      39.613349999999997     39.738900000000001     32.577075000000001
H      37.866550000000004     42.160700000000006     33.029724999999999
H      37.093150000000009     34.282100000000000     39.997304999999997
N      35.303650000000005     39.600800000000007     39.584465000000002
O      37.584650000000011     34.337500000000006     39.207844999999992
