25

C      38.065259999999995     37.134399999999992     37.780449999999988
C      36.685749999999999     36.961599999999997     38.314850000000007
C      39.028329999999997     37.486300000000000     38.703749999999999
C      36.253529999999998     37.302199999999992     39.681250000000006
C      37.176850000000002     38.829799999999992     41.023349999999994
C      38.682160000000010     37.510800000000003     40.131850000000000
C      37.359800000000007     37.771299999999989     40.392249999999990
C      38.549830000000000     37.019199999999998     36.446449999999999
C      37.669529999999995     36.686199999999999     35.471649999999983
C      36.308140000000009     36.728900000000003     35.864050000000006
C      35.818840000000009     36.818700000000000     37.199150000000003
C      40.515520000000009     37.612099999999991     38.418349999999990
C      40.994470000000007     37.493899999999996     36.862549999999999
C      39.962209999999999     37.051499999999997     36.065550000000002
H      39.313449999999989     37.413999999999994     41.036950000000004
H      40.807520000000011     38.591700000000003     38.691649999999996
H      35.586460000000002     36.520699999999998     35.081750000000000
H      37.105800000000002     39.586799999999997     41.616249999999994
H      38.054430000000011     36.413200000000003     34.383750000000006
H      34.705849999999998     37.005200000000002     37.363849999999985
H      41.154660000000007     37.038600000000002     39.109549999999999
H      42.015829999999994     37.387699999999995     36.734750000000005
H      40.215530000000001     36.638399999999997     34.990650000000002
H      33.984170000000006     37.049599999999998     39.969449999999995
O      35.002679999999998     36.966200000000001     40.276949999999985
