5

C      38.018149999999991     37.896849999999993     37.782899999999998
H      38.631149999999998     37.064850000000000     37.663399999999996
H      37.774849999999986     37.858350000000002     39.093900000000005
H      38.629249999999992     38.935150000000000     37.824399999999997
H      37.368850000000002     37.761250000000004     36.906099999999995
