5

C      38.143719500000003     37.938199999999995     37.997299999999996
H      38.554239500000008     37.256399999999999     38.841099999999997
H      38.613139500000003     37.381699999999995     37.158900000000003
H      37.148180500000009     37.904700000000005     38.003899999999987
H      38.851819499999991     38.743600000000001     37.959000000000003
