82

C      41.375799999999998     34.245217499999995     37.031599999999997
C      42.275500000000008     35.122897500000008     37.712599999999995
C      34.630600000000001     42.919237499999994     39.947500000000005
C      33.984300000000005     41.673637500000012     39.774400000000000
C      36.123300000000008     42.749837500000012     39.909299999999988
C      39.998800000000010     34.449617500000002     36.989499999999992
C      41.841100000000004     36.430677500000002     38.228200000000001
C      34.719099999999997     40.564237500000004     39.101699999999994
C      38.306000000000004     41.684137499999991     39.410899999999998
C      39.202300000000008     40.616137500000008     39.238499999999988
C      38.083700000000007     35.943677500000007     38.060199999999995
C      40.177400000000006     37.836827499999998     39.061999999999998
C      36.825100000000006     41.674237499999990     39.268000000000001
C      39.479100000000003     35.602367500000000     37.886799999999994
C      40.460800000000006     36.561287500000006     38.233900000000006
C      37.695000000000007     37.166277499999993     38.751199999999997
C      36.136300000000006     40.451537500000001     38.929399999999987
C      38.342800000000004     39.435837500000005     39.275300000000001
C      38.687000000000005     38.079997499999990     39.047199999999989
C      36.878900000000009     39.196737500000012     39.183599999999998
C      40.520400000000002     40.254737500000005     38.868399999999994
C      41.092000000000006     38.946937499999990     38.965099999999993
C      42.531099999999995     38.710977499999998     39.097299999999990
C      42.879400000000011     37.367477500000007     38.696799999999996
C      42.123699999999999     32.991387500000002     36.399900000000002
C      43.245599999999996     32.535167500000000     37.101200000000006
C      44.104700000000001     33.402057499999998     37.858800000000002
C      43.586000000000006     34.600267500000001     38.103799999999993
C      44.579600000000006     35.472997500000005     38.882199999999997
C      44.221100000000000     36.881507499999998     38.952900000000000
C      33.848100000000002     44.143537500000008     39.916399999999996
C      32.428699999999999     44.082137500000002     40.015699999999995
C      31.735300000000002     42.841637500000004     40.355499999999992
C      32.585900000000002     41.766337500000006     40.080799999999996
C      39.216900000000003     33.821417500000010     35.853399999999993
C      39.740500000000004     32.739157500000005     35.170899999999989
C      41.139700000000005     32.546887500000011     35.409499999999994
C      37.048000000000009     43.589237500000010     40.662999999999997
C      35.558200000000006     45.732837500000002     38.708100000000002
C      34.498100000000001     45.449137499999992     39.514699999999991
C      32.117199999999997     39.208437500000002     39.309200000000004
C      32.939200000000007     38.877577500000001     38.148899999999998
C      31.961599999999997     40.386337500000010     40.042900000000003
C      32.562500000000000     37.713707500000012     37.323999999999998
C      32.109000000000009     37.760477500000007     35.853099999999998
C      34.061500000000002     39.670437499999991     38.188500000000005
C      36.824600000000011     35.134587500000009     37.825699999999998
C      43.717399999999998     31.159037500000007     37.016099999999994
C      44.800899999999999     30.400287500000001     37.313299999999998
H      43.086400000000005     39.663337500000011     39.563699999999997
H      44.874700000000004     33.076597500000005     38.495800000000003
H      45.694000000000003     35.275807499999999     39.249299999999991
H      31.826900000000002     45.036237500000013     39.898399999999995
H      38.114500000000007     33.847537500000001     35.743600000000001
H      36.213900000000002     35.518607500000002     38.807800000000000
H      39.336200000000005     32.157427500000011     34.246399999999994
H      41.420900000000010     31.919627500000001     34.642499999999998
H      36.560200000000002     44.565637500000008     40.785700000000006
H      37.082000000000008     43.767637500000006     41.753600000000006
H      36.279100000000007     46.742037499999995     38.570799999999991
H      35.826200000000007     44.781537499999999     38.345900000000000
H      33.942600000000006     46.089837500000002     40.206000000000003
H      31.454600000000006     40.063237500000000     40.982299999999995
H      31.573200000000007     38.313667499999994     39.635999999999996
H      31.134399999999999     37.229587500000008     35.887299999999996
H      31.837600000000002     38.722117500000010     35.579300000000003
H      32.884600000000006     37.437987500000006     35.121099999999998
H      30.305999999999997     43.734537500000002     41.452099999999987
H      44.863399999999999     38.660817500000007     39.162499999999994
H      42.130100000000006     41.752837499999998     38.216399999999993
H      34.966000000000001     39.496137500000003     37.480299999999986
H      37.043000000000006     33.971827500000003     38.067899999999995
H      36.288000000000004     35.636047500000004     36.858000000000004
H      42.717600000000012     30.582117499999999     36.558199999999985
H      45.680000000000007     31.007677499999996     37.481399999999994
H      44.710000000000008     29.257962500000001     37.299599999999998
N      36.669300000000007     37.945107500000006     38.869100000000003
O      33.138200000000005     36.750527500000004     37.695899999999995
O      30.527000000000001     42.886837499999999     41.043400000000005
O      45.252399999999994     37.729877500000001     39.115200000000002
O      41.385200000000005     41.109037499999999     38.348699999999994
S      38.919500000000006     43.326037500000012     39.801299999999998
