5

C      37.865699999999997     38.255949999999991     38.203549999999993
H      38.783900000000003     38.828350000000000     38.039849999999994
H      37.216099999999997     38.510449999999992     39.012149999999998
H      37.466300000000004     38.213849999999994     36.987850000000002
H      38.065899999999999     37.171650000000000     38.398249999999997
