5

C      37.927434999999996     38.127699999999990     38.253000000000000
H      36.958064999999998     38.817099999999996     38.465800000000002
H      37.660834999999992     37.182900000000004     38.819999999999993
H      37.976534999999998     38.420299999999997     37.180000000000007
H      39.041935000000002     38.358699999999999     38.238100000000003
