8

C      38.457499999999996     38.343099999999993     38.252099999999999
C      37.275900000000007     37.453800000000001     37.722400000000007
H      39.499399999999994     37.991399999999999     38.442500000000003
H      37.187400000000011     36.680799999999998     38.449400000000004
H      38.618700000000004     39.319200000000002     37.674899999999994
H      37.502700000000004     37.411200000000001     36.621400000000001
H      38.128500000000003     38.180300000000003     39.378599999999999
H      36.500600000000006     38.229800000000004     37.907799999999995
