5

C      37.596699999999991     38.270449999999997     37.992849999999990
H      36.664000000000001     37.965850000000003     37.732150000000004
H      39.335999999999999     38.095349999999996     37.148650000000004
O      37.377799999999993     39.019750000000002     38.851349999999996
S      39.082899999999995     36.980249999999998     37.580650000000006
