5

C      37.935649999999995     37.732499999999987     38.218349999999987
C      38.193049999999999     37.595000000000006     37.016849999999991
H      37.470450000000000     38.404999999999994     40.002049999999997
H      38.529550000000000     37.662500000000001     35.997950000000003
O      37.586749999999995     37.662699999999994     39.487150000000000
