8

C      38.502899999999997     38.488299999999995     38.207434999999997
C      37.783700000000003     37.394599999999997     37.541155000000003
H      37.003999999999998     36.861400000000003     38.280175000000000
H      36.953899999999997     37.749700000000004     36.989435000000000
H      38.677599999999998     39.295699999999997     37.382655000000000
H      38.443999999999996     36.704300000000003     37.172055000000000
H      39.046100000000003     37.798499999999990     39.010565000000000
H      37.768099999999997     39.179500000000004     38.665484999999997
