12

C      38.069749999999999     37.963999999999999     37.901364999999998
C      38.742549999999994     37.953099999999992     36.677764999999994
C      37.858350000000009     39.337699999999998     38.620064999999997
C      37.905649999999994     36.685400000000001     38.755364999999998
H      38.356249999999996     39.409899999999993     39.709564999999998
H      38.636450000000004     38.905299999999997     36.479765000000000
H      39.379049999999999     37.217200000000005     36.226434999999995
H      38.186650000000007     40.158599999999993     37.810365000000004
H      36.620950000000001     39.383700000000005     38.865764999999996
H      38.558149999999998     35.841400000000007     38.389165000000006
H      37.885550000000002     36.783599999999993     39.773565000000005
H      36.968650000000004     36.557500000000005     38.276664999999994
