6

C      38.573901999999997     37.589799999999997     37.868199999999987
C      37.329801999999994     38.314499999999995     37.829300000000003
H      39.438572000000001     38.141000000000005     37.613900000000001
H      38.592061999999999     36.598700000000008     38.523600000000002
H      37.156951999999997     39.401299999999992     37.476399999999998
H      36.561427999999999     37.734800000000007     37.988600000000005
