28

C      37.197499999999991     36.083049999999993     38.446399999999997
C      36.160799999999995     36.310749999999992     37.323300000000003
C      39.016899999999993     39.756749999999990     37.886700000000005
C      38.556599999999989     36.293949999999988     38.305400000000006
C      36.316999999999993     37.529949999999999     36.628400000000006
C      39.606499999999997     38.458249999999992     38.087500000000006
C      37.710300000000004     39.472949999999997     37.323600000000006
C      38.803600000000003     37.460349999999991     37.453700000000005
C      37.692300000000003     38.223349999999996     36.814600000000006
C      39.793499999999995     37.814549999999997     40.361600000000003
C      40.512399999999985     38.132449999999992     39.207300000000004
C      39.605099999999993     41.136249999999990     37.802700000000009
C      35.385800000000003     38.477550000000001     35.885500000000008
C      36.927099999999996     34.877849999999995     39.378400000000006
H      35.510000000000005     35.483049999999999     36.960100000000004
H      37.136399999999995     40.221849999999996     36.767700000000005
H      40.381100000000004     38.015749999999997     41.175199999999997
H      41.590599999999995     38.592149999999990     39.365100000000005
H      38.932500000000005     37.107249999999993     40.480000000000004
H      39.171699999999987     42.020550000000000     37.449700000000000
H      35.871899999999997     38.888550000000002     34.824800000000003
H      35.229299999999995     39.338749999999997     36.388800000000003
H      36.692499999999995     33.979450000000000     38.826700000000010
H      37.824299999999994     34.314549999999997     39.849300000000007
H      36.213999999999999     35.338949999999997     40.020099999999999
H      34.409400000000005     38.026949999999999     35.478699999999996
H      39.530399999999986     36.023449999999997     38.891500000000001
O      40.663899999999998     41.358750000000001     38.299500000000002
