53

C      35.937649999999991     39.902649999999994     39.411649999999995
C      36.174549999999996     40.054750000000006     40.912050000000001
C      38.690449999999998     35.944449999999996     39.571050000000007
C      39.558450000000008     36.579850000000000     40.676050000000004
C      36.675950000000000     38.954249999999995     38.640550000000005
C      37.216250000000002     39.333249999999992     41.624649999999995
C      38.053650000000005     36.952350000000003     38.716649999999994
C      38.871949999999998     37.627450000000003     41.488950000000003
C      37.543450000000007     37.988849999999992     39.418550000000003
C      37.963050000000010     38.366949999999989     40.813250000000004
C      35.393050000000002     40.967949999999995     38.571449999999999
C      35.057150000000007     42.207949999999997     39.243549999999999
C      35.345750000000010     42.310849999999995     40.684250000000006
C      35.798349999999999     41.292650000000002     41.449150000000003
C      39.275049999999993     34.848549999999996     39.002649999999996
C      40.193649999999991     33.994250000000001     39.856650000000002
C      41.245850000000004     34.855749999999993     40.322050000000004
C      40.949350000000010     36.118350000000000     40.844649999999994
C      35.238050000000001     40.843150000000001     37.143150000000006
C      34.754649999999998     41.999749999999999     36.492450000000005
C      34.347549999999998     43.141150000000003     37.287450000000007
C      34.549849999999992     43.439349999999997     38.744150000000005
C      35.834950000000006     39.712749999999993     36.448949999999996
C      36.656149999999997     38.833750000000002     37.170950000000005
C      36.710149999999999     37.435849999999988     36.655650000000001
C      37.389850000000010     36.559549999999994     37.451350000000005
C      38.761250000000004     34.304549999999999     37.724150000000002
C      37.308449999999993     34.916949999999993     37.345650000000006
C      39.927749999999989     32.484749999999998     40.083250000000000
C      34.640650000000008     42.183150000000005     34.937050000000006
C      34.826149999999998     43.644549999999995     34.479750000000003
H      36.965350000000001     39.092350000000003     42.594750000000005
H      39.266149999999996     38.249549999999992     42.248449999999998
H      35.539050000000003     43.369949999999989     41.110750000000003
H      35.871750000000006     41.645350000000001     42.523050000000005
H      42.373949999999994     34.553949999999993     40.436150000000005
H      41.781750000000002     36.772349999999996     41.141050000000007
H      33.759349999999998     43.981349999999999     36.980750000000000
H      34.027650000000008     44.201349999999991     39.267950000000006
H      36.024850000000001     39.516849999999998     35.403150000000004
H      35.827250000000006     36.718550000000000     36.140150000000006
H      39.424250000000001     34.412649999999992     36.786250000000003
H      38.772649999999999     33.258850000000002     38.060650000000003
H      36.542150000000007     34.333850000000005     37.685950000000005
H      36.948449999999994     34.523050000000005     36.351350000000004
H      40.065449999999998     31.637049999999995     39.071550000000002
H      38.907849999999996     32.661249999999995     40.285850000000003
H      35.453649999999996     41.651050000000005     34.339450000000006
H      33.626050000000006     41.792149999999999     34.588249999999995
H      40.261849999999995     32.025449999999999     41.181249999999999
H      35.402850000000001     44.362950000000005     35.045750000000005
H      35.156450000000007     43.644649999999992     33.405249999999995
H      33.647649999999999     44.180850000000000     34.285450000000004
