91

C      38.550449999999998     34.492399999999996     37.620899999999992
C      38.316650000000003     35.540299999999995     36.673100000000005
C      42.048550000000006     33.053400000000003     34.530199999999994
C      42.396550000000005     34.508800000000001     34.231000000000009
C      39.609850000000002     33.502700000000004     37.442399999999992
C      39.447950000000006     35.982399999999998     35.893299999999996
C      41.558850000000007     32.855400000000003     35.850999999999999
C      41.777150000000006     35.672399999999996     35.005099999999999
C      40.772350000000003     33.879600000000003     36.601600000000005
C      40.586150000000004     35.088600000000000     35.712000000000003
C      37.566950000000006     34.197800000000001     38.537700000000001
C      36.820250000000001     35.311899999999994     39.102900000000005
C      36.387850000000007     36.315199999999997     37.998399999999990
C      37.240550000000006     36.484400000000001     36.935299999999998
C      42.797950000000007     32.047100000000000     33.793800000000005
C      43.643550000000005     32.283999999999999     32.763700000000000
C      43.922950000000007     33.718399999999995     32.598100000000002
C      43.222750000000005     34.849800000000002     33.212500000000006
C      37.644950000000001     32.728100000000005     39.176799999999986
C      36.268650000000001     32.306699999999999     39.652899999999988
C      35.573950000000004     33.415100000000002     40.155600000000007
C      36.192150000000005     34.741500000000002     40.290700000000001
C      39.841650000000001     32.138700000000000     38.133600000000001
C      38.713950000000004     31.646700000000003     38.881399999999999
C      39.233549999999994     37.038899999999998     34.965200000000010
C      38.357150000000004     38.980899999999998     38.059200000000004
C      36.962650000000004     37.911300000000004     36.192900000000009
C      38.112949999999998     38.830700000000000     36.578699999999998
C      41.662949999999995     37.126500000000000     34.942900000000009
C      41.679450000000003     37.389600000000002     36.529200000000003
C      34.773050000000005     33.045800000000000     41.440200000000004
C      33.430550000000004     39.164899999999996     37.731499999999997
C      33.340250000000005     44.005099999999992     43.177999999999997
C      34.142749999999999     39.022099999999995     39.136000000000010
C      32.617550000000001     40.432800000000000     37.621800000000007
C      32.774350000000005     44.366800000000005     41.921799999999990
C      35.068850000000005     40.187000000000005     41.217700000000008
C      31.715550000000007     42.702399999999997     38.799900000000008
C      35.270850000000003     41.308599999999991     42.021799999999999
C      31.615250000000003     43.731899999999996     39.793199999999999
C      34.193050000000007     40.140099999999997     40.094600000000000
C      32.484750000000005     41.496099999999998     38.632800000000003
C      34.260749999999994     42.221899999999991     42.040899999999993
C      32.595850000000006     43.553800000000003     40.792499999999990
C      33.276150000000001     41.257100000000001     39.884700000000009
C      33.435649999999995     42.152799999999999     40.915800000000004
C      33.658750000000005     38.209199999999996     36.718699999999998
C      34.509850000000007     37.170699999999997     36.948200000000000
C      35.285050000000005     37.259000000000000     38.124099999999999
C      35.085750000000004     38.046499999999995     39.268100000000004
C      32.036450000000002     40.456899999999997     36.384100000000004
C      32.271350000000005     39.571199999999997     35.350800000000007
H      42.282349999999994     37.366100000000003     34.166299999999993
H      41.287050000000001     31.856700000000004     35.939200000000000
H      34.310750000000006     35.351699999999994     36.940700000000007
H      44.305050000000001     31.475400000000000     32.440399999999997
H      44.928549999999994     34.028600000000004     32.207099999999997
H      35.664250000000003     31.344300000000004     39.435600000000008
H      40.681150000000002     31.404600000000002     37.921199999999999
H      38.224450000000004     33.248299999999993     40.001199999999997
H      38.877849999999995     30.831400000000002     39.595499999999987
H      38.837450000000004     39.222900000000003     35.839700000000008
H      39.400250000000000     39.201400000000000     38.237600000000000
H      37.405550000000005     39.268900000000002     38.675100000000000
H      36.125149999999998     38.383299999999998     36.716300000000004
H      36.523250000000004     37.859999999999992     35.089900000000000
H      38.342750000000002     37.547600000000003     34.839100000000002
H      41.010050000000007     36.572700000000005     37.081200000000010
H      42.379350000000002     36.928699999999999     37.301200000000009
H      35.395950000000006     32.328499999999998     42.012899999999988
H      42.765650000000001     30.962499999999999     34.059399999999997
H      43.729250000000008     36.245400000000004     31.979800000000001
H      33.912750000000003     32.562700000000000     40.861699999999999
H      34.118350000000000     33.838999999999999     41.868800000000007
H      33.111650000000004     44.643999999999991     44.020200000000003
H      32.067050000000002     45.168599999999998     41.929000000000002
H      31.580450000000006     43.203099999999992     37.871899999999997
H      36.403250000000007     41.468499999999999     42.552199999999999
H      31.071450000000006     44.641700000000000     39.306100000000001
H      35.618850000000002     37.652799999999992     40.116300000000010
H      31.605950000000007     39.959599999999995     34.580300000000008
H      35.429949999999998     38.312700000000000     41.385700000000000
H      31.470150000000004     41.378599999999999     36.165599999999998
H      41.323850000000007     38.520099999999999     36.957400000000007
N      34.155050000000003     42.988399999999999     43.122399999999999
O      40.158550000000005     37.640400000000000     34.369000000000000
O      36.187750000000001     35.272100000000002     41.423100000000005
O      43.499249999999996     36.205800000000004     32.899700000000010
O      35.951950000000004     39.208899999999993     41.412799999999990
O      33.035650000000004     38.447600000000001     35.509600000000006
O      34.352550000000001     36.006999999999998     36.197600000000008
