51

C      34.686124999999997     39.069249999999997     35.741939999999985
C      40.124615000000006     37.711150000000004     36.709839999999993
C      38.949815000000001     38.435750000000006     36.247539999999994
C      40.246815000000005     36.242450000000005     32.452840000000002
C      40.684015000000002     36.483450000000005     36.028239999999990
C      38.307204999999996     37.979450000000007     34.879439999999995
C      41.142915000000002     36.036650000000002     33.475139999999989
C      40.510414999999995     36.857849999999999     34.610740000000000
C      39.360615000000003     37.366650000000000     34.040639999999989
C      39.912715000000006     37.461950000000009     38.087939999999989
C      39.334514999999996     38.402450000000009     39.156739999999992
C      38.973314999999999     39.429250000000003     38.234540000000003
C      38.272575000000003     39.335449999999994     36.915739999999992
C      40.459115000000004     36.402650000000001     38.691740000000003
C      40.248615000000001     35.990050000000004     40.092239999999997
C      40.132714999999997     37.153950000000002     40.872740000000000
C      39.522314999999999     38.356550000000006     40.533439999999992
C      41.119115000000001     35.318550000000002     36.592739999999999
C      41.156515000000006     35.301850000000009     38.031939999999999
C      36.174574999999997     38.646350000000005     35.784839999999996
C      36.847895000000001     39.860050000000008     36.437139999999985
C      39.226515000000006     40.883850000000002     38.495039999999996
C      36.948554999999999     38.724650000000004     41.133440000000000
C      38.413145000000000     39.146650000000001     41.374339999999997
C      40.136415000000007     36.641549999999995     43.926090000000002
H      38.890915000000007     40.948250000000009     39.585839999999997
H      40.471715000000003     35.758150000000008     31.400339999999993
H      42.076414999999997     35.533850000000008     33.533539999999995
H      41.287715000000006     34.420350000000006     36.058439999999997
H      41.416114999999998     34.324350000000003     38.516739999999992
H      34.607585000000000     38.649750000000004     34.710540000000002
H      36.272105000000003     37.641150000000003     36.261339999999997
H      36.120125000000002     40.233249999999998     37.335639999999991
H      36.951474999999995     40.450250000000004     35.661239999999999
H      40.154515000000004     41.254449999999999     37.984339999999989
H      38.554485000000007     41.675649999999997     37.907439999999994
H      37.163435000000007     37.557750000000006     41.229039999999983
H      36.231445000000008     39.262450000000001     41.805540000000001
H      38.565265000000004     40.109950000000005     40.969439999999999
H      38.644415000000002     39.087850000000003     42.310639999999999
H      41.388914999999997     34.690550000000009     41.056039999999996
H      36.512084999999999     40.024850000000001     39.481839999999998
H      39.828415000000000     37.483750000000008     44.599660000000007
H      39.690214999999995     35.873750000000008     44.546350000000011
H      39.252114999999996     36.986450000000005     43.259939999999993
N      39.251115000000006     37.024950000000004     32.800440000000002
N      37.068234999999994     38.030650000000001     34.606339999999996
O      33.923585000000003     39.107650000000000     36.712639999999993
O      40.502915000000002     34.732650000000000     40.626839999999987
O      36.690265000000004     39.338449999999995     39.873339999999992
S      41.330514999999998     36.353550000000006     42.672739999999997
