5

C      38.020149999999987     37.625599999999991     37.987849999999995
H      37.349950000000000     37.144700000000000     39.014500000000005
H      37.578049999999998     37.197100000000006     36.985499999999995
H      37.913449999999990     38.855300000000000     37.693170000000002
H      38.650050000000000     37.319200000000009     38.727600000000002
