6

C      38.481099999999991     38.368729999999999     38.038649999999990
H      36.628799999999998     36.731099999999998     38.152650000000001
H      38.012000000000000     39.268900000000002     37.532550000000008
H      38.588399999999993     37.919269999999997     37.046450000000000
H      39.371200000000002     38.561539999999994     38.643649999999994
S      37.587200000000003     37.127110000000002     38.953550000000000
