5

C      37.913549999999994     38.058099999999996     38.188599999999994
H      37.473749999999995     37.082299999999996     37.881699999999995
H      38.953949999999999     37.899600000000000     38.361999999999995
H      37.760449999999999     38.917700000000004     37.288600000000002
H      37.046050000000001     38.678900000000006     38.711399999999998
