82

C      37.880934999999994     39.231649999999995     31.845449999999989
C      36.420532000000009     38.721150000000002     31.599489999999999
C      37.992635000000007     39.432950000000005     36.595069999999993
C      36.549380000000014     38.957650000000001     36.707840000000004
C      38.530124999999998     39.729550000000003     33.030699999999996
C      35.851184999999987     38.759650000000008     32.869079999999997
C      38.638904999999994     39.708849999999998     35.433319999999995
C      35.825484999999986     38.847050000000003     35.432969999999997
C      37.946555000000004     39.364150000000002     34.195880000000002
C      36.522020000000012     38.900050000000007     34.105829999999997
C      38.493695000000002     39.770750000000007     30.723933999999996
C      37.869815000000003     39.689450000000008     29.459549999999997
C      36.580547000000010     39.226650000000006     29.244650000000004
C      35.677785000000000     38.940550000000002     30.312934000000002
C      38.929164999999998     39.117450000000005     37.627820000000000
C      38.256164999999996     38.318550000000002     38.572869999999995
C      36.914627000000010     38.322850000000003     39.149559999999994
C      36.208427000000000     38.690749999999994     38.074739999999991
C      34.182185000000018     38.637150000000005     30.022249999999996
C      39.133345000000006     37.326250000000002     39.419520000000006
C      39.844905000000011     38.658450000000002     42.909249999999986
C      39.672624999999996     38.730450000000005     41.409350000000003
C      40.532675000000012     34.210050000000003     42.960149999999985
C      40.267695000000003     34.023450000000004     41.514549999999986
C      39.075365000000005     37.637749999999997     43.661149999999992
C      38.992925000000014     37.578149999999994     40.842150000000004
C      40.045175000000000     35.360550000000003     43.676550000000006
C      39.158275000000003     34.945050000000002     41.060949999999991
C      39.424405000000007     36.399550000000005     42.961449999999985
C      39.191765000000004     36.405850000000001     41.766049999999993
C      40.323165000000003     39.832950000000004     43.626350000000002
C      40.531355000000005     41.152550000000005     42.941749999999999
C      40.603025000000002     41.071649999999998     41.533949999999990
C      40.215515000000011     39.873349999999995     40.874750000000006
C      41.337345000000013     33.170249999999996     43.634150000000005
C      41.711295000000007     32.115249999999996     42.877049999999997
C      42.040255000000002     32.193249999999999     41.514549999999986
C      40.963714999999993     32.945749999999997     40.831050000000005
C      39.845915000000005     39.690450000000006     44.972949999999997
C      39.600485000000006     40.962949999999999     45.525850000000005
C      39.908695000000009     42.339449999999999     45.020449999999997
C      40.319265000000001     42.346750000000000     43.667749999999998
C      38.301355000000001     37.785950000000007     44.917649999999995
C      39.029625000000010     38.699849999999998     45.931049999999999
C      39.767165000000006     37.595150000000004     46.691049999999990
C      39.650144999999995     43.548549999999999     45.860449999999986
C      39.198215000000005     35.986649999999997     38.840900000000005
C      40.314854999999994     43.660349999999994     43.017549999999986
H      39.359115000000003     40.389050000000005     32.920729999999992
H      34.899985000000001     38.960850000000008     32.919190000000000
H      39.776385000000005     39.921749999999996     35.459040000000002
H      34.854685000000003     38.640750000000004     35.402090000000001
H      39.411285000000007     40.259349999999998     30.624948000000000
H      38.262675000000002     39.878850000000007     28.530249999999999
H      36.191873000000001     39.442450000000001     28.244150000000008
H      35.213284999999999     38.742150000000002     38.060449999999989
H      33.829885000000004     38.432849999999995     28.936750000000000
H      36.707174000000009     38.197050000000004     40.130750000000006
H      39.935594999999992     39.220050000000008     37.583010000000002
H      40.037795000000003     35.393350000000005     44.849249999999998
H      38.192345000000003     34.820850000000007     41.495549999999994
H      40.941665000000000     42.054750000000006     40.992350000000002
H      40.032405000000011     40.000150000000005     39.806899999999999
H      41.606805000000008     33.179549999999999     44.767049999999998
H      42.458905000000001     31.323450000000001     43.259950000000003
H      42.692215000000004     31.553849999999997     40.932350000000000
H      40.439515000000000     32.453150000000001     39.994540000000001
H      39.181035000000008     40.774749999999997     46.446649999999991
H      38.296364999999994     36.783950000000004     45.425449999999998
H      37.155985000000001     38.047850000000004     44.736449999999991
H      38.273054999999999     39.285449999999997     46.563749999999999
H      40.467884999999995     36.897150000000003     46.301850000000002
H      40.417805000000001     44.676549999999999     45.961349999999996
H      40.208435000000009     35.685350000000000     38.837220000000002
H      38.765205000000009     35.928349999999995     37.904869999999988
H      39.451795000000004     44.294150000000002     43.183949999999996
H      41.183645000000013     44.245750000000001     43.560550000000006
H      40.550335000000004     43.538750000000007     41.983749999999986
O      33.307784999999996     38.710150000000006     30.779048000000000
O      38.908415000000005     34.830650000000006     39.744230000000002
O      39.303214999999994     37.375850000000007     47.755849999999995
O      38.874015000000000     43.626050000000006     46.724749999999986
