5

C      37.813950000000006     37.663182999999989     38.117599999999996
H      37.379850000000005     37.354124999999996     36.958600000000004
H      38.871349999999993     37.234097000000006     38.375399999999999
H      37.128650000000007     37.535001000000008     39.041399999999996
H      37.913950000000000     38.765902999999994     38.181699999999992
