5

C      38.267499999999991     38.019189999999995     37.858199999999997
H      38.828800000000001     38.626359999999998     38.785599999999995
H      38.356299999999997     38.773589999999999     37.214400000000005
H      38.826300000000003     37.226410000000001     37.663600000000002
H      37.171199999999999     37.769510000000004     37.898299999999999
