5

C      38.259950000000003     37.760399999999990     38.049875000000000
H      38.610649999999993     38.756499999999988     38.048475000000003
H      37.389350000000007     38.096299999999999     37.763685000000009
H      38.021749999999997     37.313200000000009     38.964284999999997
H      38.388750000000002     37.243500000000012     37.035715000000003
