5

C      37.862394999999992     37.929049999999989     38.159299999999995
H      37.666924999999992     37.060249999999996     38.921800000000005
H      37.117114999999998     38.939750000000004     38.174900000000001
H      38.882885000000002     38.113450000000000     38.756099999999996
H      38.143614999999997     37.691950000000006     37.078199999999995
