72

C      35.118299999999991     35.177799999999991     31.045399999999997
C      37.093899999999991     35.497600000000006     32.482999999999990
C      37.588699999999996     35.000300000000010     33.813499999999991
C      37.587200000000003     33.599000000000004     33.852899999999998
C      36.646299999999997     32.773000000000010     33.144100000000002
C      36.069999999999993     33.046700000000001     31.879999999999999
C      36.224499999999992     34.470600000000005     31.545700000000000
C      37.677099999999996     39.245100000000008     33.741500000000002
C      37.570699999999995     35.243400000000008     42.237399999999994
C      38.732999999999997     35.981899999999996     42.704200000000000
C      38.962699999999998     39.970700000000008     33.946399999999990
C      37.209899999999990     34.935500000000005     40.878999999999998
C      39.552999999999990     36.512200000000007     41.619900000000001
C      40.040399999999991     39.293499999999995     34.707299999999996
C      38.343499999999992     35.900600000000011     34.909700000000001
C      38.492299999999993     35.468000000000018     36.005399999999995
C      41.727899999999998     38.746800000000007     38.521199999999993
C      41.111899999999999     37.919100000000014     39.564399999999992
C      37.537699999999994     35.582800000000006     38.552299999999995
C      38.565999999999995     37.205500000000015     34.512599999999999
C      40.825399999999995     38.872900000000016     37.441699999999997
C      38.031299999999995     35.566999999999993     40.004199999999997
C      39.207099999999997     36.381500000000017     40.187100000000001
C      39.556199999999997     38.049599999999998     35.449700000000000
C      39.947399999999995     37.167800000000014     39.278699999999994
C      39.302500000000002     37.047600000000017     37.862799999999993
C      39.978599999999986     37.875600000000006     36.847400000000000
C      40.446999999999989     37.560600000000008     41.928500000000000
C      41.291799999999995     38.015700000000010     40.970499999999994
C      36.665299999999995     39.918900000000008     33.025100000000002
C      36.664200000000001     41.293600000000012     33.132100000000001
C      37.956899999999997     41.861000000000018     33.112699999999997
C      39.140799999999992     41.170600000000007     33.312500000000000
C      36.725400000000000     34.579200000000014     43.345599999999997
C      36.958599999999997     34.921700000000001     44.668300000000002
C      38.142999999999994     35.671499999999995     45.039900000000003
C      38.815199999999997     36.473400000000012     44.088000000000001
C      38.352499999999999     36.087500000000006     37.534100000000002
C      35.772999999999996     34.356100000000012     40.708100000000002
C      35.857799999999997     34.109200000000016     39.158099999999997
C      36.456600000000002     34.665399999999991     38.063899999999997
C      34.309999999999995     35.933899999999994     32.071500000000000
H      34.808999999999990     35.449300000000008     33.119999999999997
H      36.685699999999997     36.568100000000001     32.269100000000002
H      38.319399999999995     33.371700000000004     34.679299999999991
H      36.240199999999994     31.965600000000006     33.716799999999992
H      35.422599999999996     32.309100000000015     31.401900000000001
H      37.896799999999992     35.371099999999998     31.751600000000000
H      41.123699999999999     39.326900000000009     34.416999999999994
H      39.044300000000000     34.491200000000006     36.021200000000000
H      40.896499999999996     39.687300000000008     36.745100000000001
H      40.994099999999996     38.179800000000014     42.909700000000001
H      35.745600000000003     39.272600000000011     32.747100000000003
H      35.783999999999999     41.899800000000013     33.190300000000001
H      40.114100000000001     41.722800000000007     33.334499999999998
H      35.860700000000001     34.069100000000006     43.108499999999992
H      36.405299999999990     34.197300000000013     45.283699999999996
H      38.796999999999997     35.605000000000018     45.964199999999991
H      39.602399999999996     37.214800000000011     44.539899999999996
H      36.590599999999995     44.034399999999991     33.109499999999997
H      39.101399999999998     37.216100000000012     33.446399999999997
H      35.313299999999991     33.549500000000009     41.313599999999994
H      35.344999999999999     35.340800000000016     41.137999999999998
H      35.025399999999998     33.434100000000015     38.832700000000003
H      35.794300000000000     34.425000000000011     37.172899999999998
H      42.173099999999998     38.620400000000018     41.391299999999994
H      34.377199999999995     37.006000000000014     31.821900000000003
H      42.652099999999997     39.388499999999993     38.670000000000002
H      33.347900000000003     35.482300000000009     32.019700000000000
H      34.640200000000000     35.185900000000004     30.035800000000005
N      37.425999999999995     37.962700000000012     33.950600000000001
S      37.985799999999998     43.709499999999991     33.402400000000000
