5

C      38.107799999999997     37.704349999999998     38.194399999999995
H      38.755300000000005     37.777850000000001     37.010099999999994
H      37.831599999999995     38.856749999999998     38.380099999999999
H      38.698200000000000     37.251850000000005     38.989900000000006
H      37.244699999999995     37.143250000000002     38.104900000000001
