8

C      37.699449999999992     38.692399999999992     38.282331999999997
C      38.029449999999990     37.216200000000001     37.936032000000004
H      38.481650000000002     39.474799999999995     38.253831999999996
H      39.113550000000004     36.962400000000002     38.273232000000000
H      37.443049999999999     38.618999999999993     39.245268000000003
H      36.886449999999996     39.184699999999992     37.546132000000007
H      37.410650000000004     36.525200000000005     38.670103000000012
H      37.905950000000004     36.959600000000002     36.754731999999997
