9

C      37.462371999999995     38.500224999999993     37.870599999999996
C      38.036712000000001     38.268355000000000     39.268300000000004
C      37.175491999999998     37.452975000000002     36.920200000000001
H      37.169131999999998     39.567234999999997     37.437199999999997
H      38.356552000000001     39.007874999999991     39.990500000000004
H      37.143390999999994     37.822004999999997     40.078600000000002
H      36.952615999999999     37.599445000000003     35.921399999999998
H      36.776268000000002     36.432765000000003     37.082700000000003
H      39.223731999999998     37.932755000000000     39.285399999999996
