6

C      37.689099999999996     38.777664999999992     38.016699999999993
C      38.186800000000005     37.542355000000001     38.085400000000007
H      37.999399999999994     39.230384999999998     38.913799999999995
H      36.988299999999995     39.047895000000004     37.086200000000005
H      39.011700000000005     37.300665000000002     38.856800000000007
H      38.177800000000005     36.769615000000002     37.171800000000005
