40

C      39.819299999999998     39.509799999999998     41.258964999999989
C      39.922299999999993     40.097000000000008     39.859926999999999
C      35.484400000000001     35.306399999999996     35.092604999999992
C      38.883600000000008     38.624300000000005     41.806744999999992
C      34.870500000000000     35.123999999999995     36.394904999999994
C      36.390000000000008     36.474299999999999     35.164105000000006
C      38.971700000000006     39.656599999999997     38.840204999999983
C      35.912900000000000     35.803700000000006     38.759605000000001
C      37.311400000000006     36.850999999999999     40.659364999999994
C      37.679000000000009     37.567400000000006     37.187305000000002
C      35.620000000000005     35.976799999999997     37.273805000000003
C      36.471400000000010     36.856600000000000     36.505904999999991
C      38.147500000000001     38.046300000000002     40.796394999999997
C      36.686899999999994     36.850600000000000     39.384135999999998
C      38.090699999999998     38.632199999999997     39.317155199999995
C      37.297000000000004     37.839900000000000     38.485904999999988
C      38.854800000000004     39.676400000000001     37.369304999999990
C      38.262000000000008     38.747000000000000     36.471304999999994
C      41.019199999999998     39.930499999999995     41.949944999999992
C      41.166900000000005     41.791700000000006     40.878944999999987
C      40.665300000000009     41.257400000000004     39.790776999999999
C      35.206800000000008     34.626500000000007     39.375345999999993
C      35.431300000000000     34.214399999999998     34.149404999999994
C      36.506200000000007     37.294499999999999     33.848004999999993
H      37.248100000000001     37.063299999999998     33.147505000000002
H      39.065000000000005     38.268500000000003     42.803614999999994
H      34.381700000000002     34.276300000000006     36.728804999999994
H      37.508200000000002     35.946700000000007     41.356384999999996
H      39.428500000000007     40.462500000000006     37.176704999999991
H      37.853400000000001     38.949299999999994     35.467904999999988
H      41.086400000000005     39.278800000000004     42.852494999999998
H      41.618299999999998     42.732299999999995     40.390974999999997
H      40.880600000000001     42.137799999999999     38.976104999999997
H      34.867200000000004     34.039699999999996     38.442005000000002
H      35.987799999999993     34.085599999999999     33.273504999999993
H      36.333000000000006     38.396600000000007     34.197505000000000
H      35.523200000000010     37.250900000000001     33.282404999999997
N      41.380799999999994     41.152799999999999     42.030784999999995
O      34.823600000000006     34.477500000000006     40.500634999999988
O      34.792000000000009     33.267700000000005     34.605604999999983
