33

C      37.748554999999989     40.564785000000001     37.709949999999992
C      39.076669000000003     40.403485000000003     37.663250000000005
C      36.986954999999995     35.755454999999998     37.696950000000001
C      38.084154999999988     35.765924999999996     38.428749999999994
C      36.723154999999991     39.436215000000004     37.490349999999992
C      39.587918999999999     38.999445000000009     37.904949999999999
C      36.225754999999992     37.012965000000008     37.525649999999999
C      39.219211000000001     36.727244999999996     38.277150000000006
C      37.056854999999999     38.127454999999998     37.492549999999994
C      38.591155000000001     37.932225000000003     37.984150000000000
C      35.362254999999983     39.708955000000003     37.092349999999996
C      34.267654999999991     38.649425000000008     37.181949999999986
C      34.858054999999993     37.063704999999999     36.861949999999993
C      40.898775000000001     38.903925000000001     38.260949999999994
C      41.510314999999999     37.666595000000001     38.593949999999992
C      40.639045000000003     36.557675000000003     38.756349999999998
C      41.005245000000002     35.172935000000010     39.347750000000005
H      39.603402000000010     41.218584999999990     37.324950000000001
H      36.316754999999993     34.861055000000007     37.813149999999993
H      35.000254999999996     40.653385000000000     36.747850000000000
H      33.424054999999996     38.924715000000006     36.604649999999992
H      34.122054999999989     38.688995000000006     38.276749999999993
H      34.978654999999989     36.553425000000004     35.727649999999997
H      34.319454999999991     36.337024999999997     37.625550000000004
H      41.407315000000011     39.740255000000005     38.259050000000002
H      42.575945000000004     37.625695000000007     38.927350000000004
H      36.373654999999999     42.065785000000005     37.813249999999996
H      37.464954999999989     33.934214999999995     39.124949999999998
H      41.587424999999996     35.241595000000004     40.272350000000003
H      40.400005000000000     34.605564999999999     40.199149999999989
H      41.072535000000002     34.528095000000000     38.417850000000001
O      37.166154999999982     41.699584999999999     37.273049999999998
O      38.154354999999995     34.703834999999998     39.293350000000004
