55

C      42.135328499999986     34.731749999999991     35.075149999999994
C      39.798328499999990     39.128850000000000     37.853950000000012
C      39.484828499999999     40.177250000000001     38.846050000000005
C      34.890228499999999     38.542549999999991     37.290850000000006
C      34.744228499999998     39.693150000000003     38.254549999999995
C      38.709628500000001     38.286850000000001     37.483050000000006
C      38.166728499999998     40.605249999999998     38.902250000000009
C      36.217928499999992     37.933049999999994     37.469950000000011
C      35.898528499999991     40.777949999999990     38.607749999999996
C      37.318028499999990     38.739549999999994     37.539650000000009
C      37.128728500000001     40.142150000000001     38.028349999999989
C      40.963628499999992     38.363649999999993     37.728950000000012
C      42.162328499999987     39.208649999999992     38.034049999999993
C      41.916428500000002     39.988450000000000     39.257349999999988
C      40.661728500000002     40.571950000000001     39.599850000000004
C      33.995828499999995     38.284949999999995     36.224949999999993
C      32.830628499999996     39.106749999999991     36.280050000000003
C      32.601528499999993     39.977049999999991     37.324550000000002
C      33.459528499999998     40.027649999999994     38.535250000000005
C      41.073528500000002     36.951349999999991     37.190350000000009
C      42.463928500000002     36.656549999999996     36.711250000000007
C      43.552028499999999     37.544849999999997     36.889350000000007
C      43.317228499999992     39.005249999999990     37.135750000000002
C      38.782328499999998     36.861149999999995     37.065349999999995
C      37.702528499999993     35.988649999999993     36.852149999999995
C      36.421828499999997     36.564949999999996     36.869050000000001
C      34.145928499999989     37.214050000000000     35.137850000000000
C      37.740928500000003     34.521949999999990     36.336450000000013
C      40.272928499999999     41.129049999999992     40.932950000000005
C      42.708228499999997     35.147449999999992     36.412650000000014
H      40.512028499999992     42.219549999999998     41.030649999999994
H      42.693828499999995     33.780450000000002     34.745450000000005
H      42.253028499999985     35.805250000000001     34.328149999999994
H      41.020728499999997     34.508049999999997     35.043350000000004
H      37.923328499999990     41.380650000000003     39.726149999999990
H      35.819528499999997     41.012149999999991     39.822650000000010
H      42.849128499999992     40.408450000000002     39.877050000000011
H      32.011728499999997     39.173549999999992     35.585450000000009
H      31.569728499999997     40.498649999999998     37.265649999999994
H      33.120028499999997     40.723550000000003     39.293250000000000
H      44.430271500000003     37.026550000000000     36.280249999999995
H      44.315232500000000     39.511949999999999     37.340950000000007
H      35.643228499999999     35.843549999999993     36.363449999999986
H      37.598828500000003     34.635049999999993     35.241949999999989
H      33.273228499999995     37.502949999999998     34.520949999999999
H      33.805328499999995     36.149050000000003     35.332550000000012
H      34.929928499999995     37.412049999999994     34.546350000000004
H      38.787528500000001     34.131549999999990     36.701849999999993
H      36.895228499999995     33.922150000000002     36.939950000000010
H      39.451828499999998     40.611149999999995     41.263050000000007
H      40.965628500000001     40.715850000000003     41.671850000000006
H      41.826428499999999     34.905649999999994     37.145450000000011
H      43.531128500000001     34.254449999999991     36.835350000000005
H      35.614028499999996     41.867649999999998     38.111050000000006
N      39.967828499999996     36.395249999999990     36.837250000000012
