5

C      38.049849999999992     37.704849999999993     37.853699999999996
H      37.607450000000000     37.203250000000011     38.683700000000002
H      37.151050000000005     37.658450000000002     37.316299999999998
H      38.848949999999995     37.157049999999998     37.324600000000004
H      38.277149999999992     38.842950000000002     37.799199999999999
