5

C      38.073900000000002     37.888049999999993     38.147499999999994
H      37.897400000000005     38.848050000000001     38.808500000000002
H      37.147100000000002     37.472950000000004     38.699800000000003
H      37.602100000000007     37.604649999999992     37.191499999999998
H      38.852899999999998     37.151949999999999     37.994399999999999
