6

C      37.217199999999991     38.726499999999994     38.138649999999998
C      38.398499999999991     37.973800000000004     37.976949999999988
H      36.572200000000002     38.077400000000004     38.737250000000003
H      37.052699999999994     39.241699999999994     37.262749999999997
H      38.481499999999997     36.758300000000006     37.928849999999997
H      39.427799999999998     38.443899999999999     37.795649999999995
