37

C      38.106449999999995     37.611549999999994     39.047595000000001
C      38.654250000000005     36.687250000000006     39.943995000000001
C      40.611850000000004     40.377849999999995     36.886994999999999
C      38.865349999999999     38.607350000000004     38.379594999999995
C      40.118249999999996     36.762449999999994     40.053894999999997
C      41.224149999999995     39.288250000000005     37.731795000000005
C      42.110349999999997     37.853650000000002     40.559195000000003
C      40.288950000000000     38.690850000000005     38.545695000000009
C      40.896149999999999     37.736050000000006     39.600394999999992
C      36.764450000000004     37.338450000000002     38.445795000000004
C      36.042350000000006     36.174650000000007     39.190595000000002
C      36.733150000000002     35.362750000000005     40.174994999999996
C      38.065649999999998     35.685550000000006     40.656295000000000
C      36.314150000000005     37.977750000000007     37.318195000000003
C      35.324249999999999     37.226250000000007     36.626694999999998
C      34.830349999999996     36.118550000000006     37.234994999999998
C      34.966549999999998     35.500250000000001     38.574295000000006
C      37.995950000000001     39.479350000000004     37.435195000000007
C      34.607050000000001     37.548750000000005     35.303295000000006
C      34.087650000000004     38.976950000000002     35.354435000000009
H      40.580149999999996     40.327950000000001     35.822495000000004
H      34.595450000000000     39.436250000000001     36.473794999999996
H      42.197750000000006     38.882350000000002     41.346495000000004
H      40.862650000000002     36.066250000000004     40.564295000000001
H      42.340449999999990     39.346050000000005     37.930394999999990
H      40.352950000000000     41.441549999999999     37.226595000000003
H      42.349549999999994     36.909950000000002     41.139994999999999
H      35.832849999999993     34.678649999999998     40.461394999999996
H      38.880450000000003     35.034350000000003     41.209294999999997
H      33.582650000000001     35.512550000000005     37.216894999999994
H      34.591750000000005     34.558450000000001     39.077595000000002
H      38.586850000000005     40.576449999999994     37.352095000000006
H      34.618650000000002     39.675549999999994     34.653504999999996
H      33.076750000000004     39.153450000000007     34.927814999999995
H      42.923249999999996     38.144350000000003     39.954695000000001
N      36.807050000000004     39.146650000000001     36.996594999999999
O      33.949550000000002     36.713249999999995     34.732164999999995
