55

C      33.336749999999995     42.544999999999987     34.032209999999992
C      37.129850000000005     35.960499999999996     39.841309999999993
C      35.720150000000004     35.486499999999999     40.248209999999993
C      35.243650000000002     39.717799999999997     37.623309999999996
C      33.963349999999991     39.649900000000002     38.199009999999994
C      37.607150000000004     37.160700000000006     39.092310000000005
C      34.637050000000002     36.443599999999996     40.027509999999999
C      36.549349999999990     39.054000000000002     37.975309999999993
C      33.921750000000003     38.630099999999999     39.267209999999992
C      36.425449999999998     38.049000000000007     38.957209999999989
C      34.918350000000004     37.564999999999998     39.394410000000001
C      38.286450000000002     35.499799999999993     40.537209999999988
C      37.961650000000006     34.099899999999991     41.035450000000004
C      36.628050000000002     33.497199999999999     41.286584000000012
C      35.451950000000011     34.300699999999999     41.091551000000010
C      35.154850000000010     40.326800000000006     36.338809999999995
C      34.183849999999993     41.165599999999998     35.785209999999999
C      33.072550000000007     41.463300000000004     36.629709999999989
C      32.823650000000001     40.476100000000002     37.649009999999997
C      39.663750000000007     35.823999999999998     40.599209999999985
C      40.572149999999993     34.936299999999996     41.393945000000009
C      39.012450000000001     33.412699999999994     41.737920000000010
C      39.915549999999996     36.895499999999998     39.732909999999990
C      38.896649999999994     37.617300000000000     39.291609999999999
C      38.970250000000007     39.088499999999996     39.074610000000000
C      37.848749999999995     39.760400000000004     37.994709999999998
C      41.951149999999998     35.477499999999999     41.395908999999996
C      43.035150000000002     34.379800000000003     41.330736000000009
C      36.732349999999997     32.018400000000000     41.476725000000002
C      33.336350000000010     43.922699999999992     34.215109999999996
H      43.083849999999998     33.663499999999999     42.199230000000000
H      32.766550000000009     41.767099999999985     33.582609999999995
H      33.491550000000004     36.280600000000000     40.387210000000003
H      32.794950000000000     38.837500000000006     39.697009999999999
H      34.624850000000009     33.772800000000004     41.110075000000002
H      35.874549999999999     40.194799999999987     35.575510000000001
H      32.375349999999997     42.377700000000004     36.339309999999998
H      31.876450000000002     40.419899999999998     37.972410000000004
H      38.700050000000005     32.319400000000002     41.871710000000007
H      39.343149999999994     39.692800000000005     39.914709999999985
H      40.014250000000004     39.286699999999996     38.696209999999994
H      38.388450000000006     39.652200000000008     36.980609999999984
H      37.919250000000005     40.731099999999984     38.268509999999999
H      42.995450000000005     33.857699999999994     40.425609999999999
H      44.123549999999994     34.803100000000001     41.469416000000002
H      41.440749999999994     36.073999999999998     39.049410000000002
H      37.310150000000007     31.609399999999994     42.417390000000005
H      35.759450000000001     31.520199999999999     41.936270000000000
H      37.191649999999996     31.590999999999998     40.608409999999992
H      34.099350000000001     44.157299999999992     34.951810000000002
H      32.359350000000006     44.479799999999997     33.965510000000002
N      40.233249999999998     33.774600000000000     41.874410000000005
O      42.280749999999998     36.620000000000005     41.579001000000005
O      34.331850000000003     41.797300000000007     34.615209999999990
O      41.126450000000006     37.079099999999997     39.119409999999995
