25

C      38.046799999999990     39.599249999999998     36.482099999999996
C      39.170099999999998     38.525549999999996     34.660600000000002
C      39.931599999999996     37.583550000000002     35.609200000000001
C      39.625599999999991     37.699849999999998     37.005000000000003
C      38.499599999999994     38.612449999999995     37.456599999999995
C      40.874800000000000     36.451049999999995     35.104800000000004
C      37.886899999999997     38.224149999999995     38.592500000000001
C      36.809099999999994     39.048749999999998     39.044300000000000
C      36.478099999999998     40.237650000000002     38.400199999999991
C      37.190599999999996     36.492649999999998     40.362999999999992
C      35.955499999999994     36.785550000000001     41.082400000000007
H      38.303999999999995     37.937449999999998     34.239599999999996
H      40.670299999999990     37.460949999999997     37.541400000000003
H      40.789600000000000     35.679549999999992     35.768900000000002
H      36.507899999999999     39.059049999999999     39.983000000000004
H      35.550800000000002     40.687349999999995     38.580100000000002
H      40.017299999999999     39.007149999999996     34.006399999999999
H      37.996199999999995     36.114350000000002     41.020099999999999
H      37.166899999999998     35.312650000000005     39.876200000000004
H      36.267800000000001     36.875950000000003     42.081899999999997
H      35.125200000000000     37.330150000000003     41.049399999999999
N      38.292799999999993     39.484750000000005     35.292600000000007
O      40.803499999999993     36.286550000000005     33.918100000000003
O      38.020899999999997     37.106250000000003     39.280799999999992
O      37.310199999999995     40.524549999999991     37.395400000000002
