51

C      38.105189999999993     39.970999999999997     39.740799999999993
C      36.670689999999993     39.684500000000007     39.936599999999991
C      37.766430000000000     35.839099999999995     36.940100000000001
C      37.065579999999997     35.280500000000004     38.166299999999993
C      38.702839999999995     39.142599999999995     38.811100000000003
C      35.919100000000000     38.499900000000004     39.523199999999996
C      38.392690000000002     37.145200000000003     37.128700000000002
C      36.581810000000004     36.284000000000006     39.107099999999996
C      37.963579999999993     38.058699999999995     38.045600000000000
C      36.698399999999992     37.649100000000004     38.668799999999997
C      38.503719999999987     41.238700000000001     40.385499999999993
C      37.328749999999999     41.986500000000007     41.022699999999993
C      35.994410000000002     41.699700000000000     41.204699999999995
C      35.795209999999997     40.293900000000008     40.877900000000004
C      37.807469999999995     35.109000000000002     35.632700000000000
C      37.961929999999995     33.701400000000007     35.844499999999996
C      36.882220000000004     33.885599999999997     38.077999999999996
C      37.468059999999994     33.068200000000004     36.961500000000001
C      39.753469999999993     41.652500000000003     40.051200000000001
C      40.093419999999995     43.004999999999995     40.484299999999990
C      38.996330000000000     43.580399999999997     41.096799999999988
C      37.677579999999992     43.260099999999994     41.520599999999995
C      39.841560000000001     39.766599999999997     38.162599999999991
C      40.508700000000005     40.740899999999996     39.050599999999996
C      35.269019999999998     37.630400000000002     40.555299999999995
C      34.784639999999996     39.702200000000005     41.780599999999993
C      39.959249999999997     37.105100000000007     36.909099999999995
C      38.383809999999997     37.085300000000004     34.195999999999998
C      38.179090000000002     35.640500000000003     34.370899999999992
C      34.706890000000001     38.352600000000002     41.685200000000002
C      35.626359999999991     36.325799999999994     40.239699999999999
H      35.168840000000003     42.362500000000004     41.451599999999999
H      38.746259999999992     33.158699999999996     35.267099999999999
H      36.616770000000002     33.418900000000008     39.101099999999995
H      39.155749999999998     44.760999999999996     41.345700000000001
H      36.802409999999995     43.944000000000003     41.745100000000001
H      40.454399999999993     37.943900000000006     36.312500000000000
H      40.274099999999990     39.592600000000004     37.102100000000000
H      41.079599999999999     41.219999999999999     38.162599999999991
H      34.336089999999999     40.237099999999998     42.547100000000000
H      40.196219999999997     37.297800000000002     37.960299999999997
H      40.521199999999993     36.244800000000005     36.595599999999997
H      38.429819999999992     35.117600000000003     33.452900000000000
H      39.218980000000002     37.173400000000001     33.487600000000000
H      38.394159999999999     31.239000000000004     36.967999999999996
H      41.864000000000004     43.333700000000007     40.281999999999996
H      34.135999999999996     37.990300000000005     42.541499999999999
H      35.112830000000002     35.349900000000005     40.594499999999996
H      38.656309999999991     37.823900000000002     34.979900000000001
O      37.564210000000003     31.715900000000005     37.292600000000000
O      41.086299999999994     43.891000000000005     40.343399999999995
