61

C      33.532062549999992     36.636099999999999     38.537149999999997
C      32.463042549999997     37.299199999999999     38.056449999999998
C      32.493172549999997     38.683599999999998     38.421149999999990
C      33.680942549999997     39.287900000000008     38.938449999999996
C      34.490512550000005     38.410600000000002     39.835349999999991
C      34.457492549999998     37.034099999999995     39.555349999999997
C      31.435671549999999     36.522700000000000     37.257550000000002
C      40.270782550000007     37.062799999999996     36.849650000000004
C      41.511382550000008     36.661400000000000     36.171350000000004
C      41.788282550000005     40.956699999999998     35.499749999999999
C      39.568262549999986     38.234099999999998     36.543249999999993
C      42.508482549999997     37.612799999999993     35.788750000000000
C      40.462992549999996     40.653199999999998     35.681150000000002
C      40.614622550000007     39.331699999999998     36.092050000000000
C      41.965782550000000     38.886399999999995     35.693249999999999
C      39.562352550000000     36.215699999999998     37.835549999999998
C      40.242782549999987     35.069599999999994     38.373849999999997
C      41.271082549999988     34.544899999999998     37.532950000000000
C      41.890782549999997     35.333399999999997     36.537950000000002
C      38.283662550000003     36.381299999999996     38.268950000000004
C      37.818352550000000     35.409300000000002     39.268249999999995
C      38.569972550000003     34.552700000000002     40.105350000000001
C      39.921732550000002     34.401100000000000     39.582749999999997
C      38.279972549999997     38.706800000000001     36.895249999999990
C      37.551462549999997     37.068200000000004     37.100149999999999
C      43.972782549999991     37.171800000000005     35.625250000000001
C      43.937282550000006     35.520499999999998     35.134650000000001
C      43.311782550000004     34.726199999999992     36.354450000000000
C      36.436092549999998     34.942300000000003     38.939450000000001
C      35.564072549999992     34.935999999999993     39.750549999999997
C      39.681812550000004     41.937100000000001     35.664450000000002
H      33.876952549999999     35.429699999999997     38.524749999999990
H      33.765042549999990     40.455599999999990     39.115650000000002
H      35.161092550000006     38.804999999999993     40.638849999999998
H      31.720086550000001     35.464600000000004     37.117449999999998
H      31.562812550000000     40.483599999999996     38.325949999999999
H      41.993382550000007     33.804000000000002     37.558450000000001
H      40.600112549999992     33.582300000000004     40.031649999999999
H      37.712592549999997     39.143400000000000     36.198750000000004
H      38.361342549999989     39.521199999999993     37.740250000000003
H      36.170812549999994     37.253799999999998     37.492249999999991
H      37.653612549999991     36.523800000000008     36.146650000000001
H      44.647882549999991     37.822800000000001     34.876950000000001
H      44.573382550000005     37.282899999999998     36.611950000000000
H      45.050382549999995     35.473900000000000     35.050149999999995
H      43.250382549999998     35.708700000000007     34.232750000000003
H      43.884282549999995     34.436400000000006     37.175049999999999
H      43.205282549999993     33.719499999999996     35.746250000000003
H      35.957822550000003     33.799099999999996     37.193349999999995
H      34.821352550000000     34.154300000000006     39.886250000000004
H      38.857232550000006     33.988600000000005     41.767249999999997
H      39.743812550000001     42.209699999999998     34.597250000000003
H      40.140162549999999     42.417699999999996     36.516049999999993
H      38.417082550000003     41.881299999999996     35.805650000000000
H      42.122082550000002     42.043099999999995     35.450350000000000
N      42.642882549999996     40.005600000000001     35.459249999999997
O      30.949617450000002     36.946299999999994     36.240949999999998
O      35.219142550000001     36.235500000000002     40.305250000000001
O      31.447877549999991     39.556500000000000     38.471049999999998
O      36.650992549999998     34.054699999999997     37.788649999999997
O      38.124082549999997     33.739000000000004     41.209049999999998
