26

C      38.387850000000000     38.451249999999995     38.506499999999996
C      39.846150000000009     38.001650000000005     38.656199999999998
C      37.872250000000008     39.168549999999996     39.521300000000004
C      40.659350000000003     38.679150000000007     39.535399999999996
C      38.762950000000004     39.716749999999998     40.727900000000005
C      40.129149999999996     39.514150000000001     40.621799999999993
C      37.510350000000003     38.014050000000005     37.418400000000005
C      38.065049999999999     37.044049999999999     36.535500000000006
C      39.308750000000003     36.342750000000002     36.970100000000002
C      40.165250000000000     36.759250000000009     37.862900000000003
C      36.096750000000000     38.296150000000004     37.184400000000004
C      35.228149999999999     37.435650000000003     36.387100000000004
C      35.756550000000004     36.808950000000003     35.311800000000005
C      37.181349999999995     36.456150000000001     35.482000000000006
C      36.484449999999995     39.572949999999999     39.466299999999997
C      35.936350000000004     39.350450000000002     38.156800000000004
H      37.990549999999999     40.390549999999998     41.561199999999999
H      41.768950000000004     38.316050000000004     39.430000000000007
H      39.420149999999992     35.609450000000002     36.313400000000001
H      41.161950000000004     36.407250000000005     38.167200000000001
H      34.231049999999996     37.660950000000000     36.533700000000003
H      34.884249999999994     36.493250000000003     34.438800000000001
H      37.754649999999998     35.714250000000007     34.747799999999998
H      36.033749999999998     40.307050000000004     40.142700000000005
H      34.971850000000003     39.995050000000006     38.454600000000006
H      40.739050000000006     39.771149999999999     41.460000000000001
