5

C      38.169199999999989     38.121899999999989     38.246574999999993
H      36.998199999999997     38.389699999999998     38.735005000000001
H      39.001800000000003     38.894700000000000     38.250594999999997
H      37.887199999999993     37.706099999999999     37.264994999999999
H      38.482699999999994     37.105300000000000     38.597794999999998
