10

C      37.378749999999997     37.048999999999999     38.845899999999993
C      37.970249999999993     37.931599999999996     38.221299999999999
C      39.057649999999995     38.330700000000007     38.775099999999995
C      37.290649999999999     38.672699999999999     37.263599999999990
H      38.977549999999994     38.870799999999996     39.695500000000003
H      36.118549999999999     38.599400000000003     37.267699999999991
H      39.881450000000001     38.110800000000005     38.307800000000000
H      37.621349999999993     38.276200000000003     36.304499999999997
H      37.724549999999994     39.643499999999996     37.396400000000000
H      36.544650000000004     36.356500000000004     39.179399999999994
