10

C      38.053449999999998     37.388399999999997     37.298164999999997
C      37.776749999999993     37.668100000000003     38.818844999999996
C      38.132950000000008     38.820899999999995     39.227594999999994
H      37.261250000000004     38.000599999999999     36.772405000000006
H      39.220450000000000     37.642399999999995     37.409085000000005
H      38.521450000000002     36.658999999999999     39.182084999999987
H      37.586950000000002     36.448700000000002     37.120175000000003
H      36.779550000000000     37.415199999999999     38.611604999999997
H      39.195750000000004     39.017600000000002     39.162064999999998
H      37.338050000000010     39.551299999999998     39.123614999999987
