5

C      37.460149999999999     38.033849999999994     38.344849999999994
C      37.830849999999998     38.152149999999999     37.092250000000000
H      38.732050000000001     38.645550000000000     36.714650000000006
H      37.267949999999999     37.354450000000000     36.570450000000001
H      37.691150000000007     38.059649999999998     39.429549999999999
