11

C      37.427849999999999     38.418599999999991     36.879800000000003
C      37.518050000000009     37.773300000000006     38.342200000000005
C      39.038249999999998     37.735900000000001     38.945999999999998
H      37.948950000000004     39.366500000000002     36.747200000000007
H      37.141750000000009     37.653500000000008     36.079700000000003
H      36.684250000000006     38.138300000000001     38.963400000000007
H      37.590449999999997     36.633499999999998     38.389800000000008
H      38.852250000000005     37.178700000000006     39.920299999999997
H      39.046250000000008     36.796500000000002     38.032200000000003
H      39.587649999999996     38.855500000000006     38.941900000000004
H      36.412350000000004     38.961700000000008     36.472700000000003
