5

C      37.896599999999999     38.036549999999991     37.845100000000002
H      37.286100000000005     37.050550000000001     37.788800000000009
H      38.713899999999995     38.187150000000003     37.220500000000001
H      38.401499999999999     37.834350000000001     38.779499999999999
H      37.406300000000009     38.949449999999999     38.150400000000005
