6

C      38.591649999999987     37.912549999999996     38.401849999999996
C      37.683850000000007     38.250250000000001     37.506050000000002
H      39.279849999999996     38.598749999999995     38.898449999999997
H      38.612049999999996     36.715750000000000     38.244450000000001
H      36.720150000000004     37.607950000000002     37.101550000000003
H      37.296149999999997     39.284250000000000     37.226849999999999
