5

C      37.829749999999997     37.851150000000004     37.949959999999990
H      37.337360000000004     38.044849999999997     38.905100000000004
H      38.662639999999996     37.092350000000010     38.153530000000003
H      38.022050000000007     38.928049999999999     37.785860000000000
H      37.566720000000004     37.071950000000001     37.094899999999996
