108

C      44.264449999999997     36.787299999999995     34.342199999999991
C      39.776850000000003     36.631600000000006     36.820599999999992
C      38.963750000000005     36.256799999999998     37.888500000000001
C      42.392749999999999     35.101900000000001     45.786199999999994
C      41.202449999999999     36.501200000000004     37.316599999999994
C      43.494450000000001     34.740000000000002     44.797099999999993
C      41.115649999999995     35.042400000000001     45.198799999999991
C      39.004150000000003     35.830600000000004     39.377199999999995
C      44.458649999999999     35.027200000000001     42.334299999999992
C      44.334750000000000     35.297900000000006     41.048600000000000
C      39.673850000000002     34.590600000000002     43.160299999999999
C      39.338250000000002     34.843200000000003     41.783600000000000
C      42.876550000000002     35.934600000000003     39.130899999999997
C      43.318649999999998     34.789800000000000     43.385600000000004
C      40.939050000000002     34.717300000000002     43.898699999999998
C      41.536050000000003     36.162900000000000     38.674699999999994
C      43.071849999999998     35.440800000000003     40.457899999999995
C      40.340250000000005     35.754900000000006     39.655399999999993
C      40.621350000000000     35.269300000000001     40.954900000000002
C      42.035249999999998     34.898300000000006     42.765200000000000
C      41.972250000000003     35.168900000000001     41.391700000000000
C      37.795450000000002     35.241100000000003     40.096999999999994
C      38.007449999999992     34.696899999999999     41.265999999999998
C      39.370449999999998     37.356099999999998     35.614699999999999
C      38.061350000000004     37.682700000000004     35.270499999999991
C      37.204850000000000     37.354100000000010     36.364399999999989
C      37.568550000000002     36.593800000000002     37.642699999999998
C      36.547449999999998     35.770200000000003     38.265799999999992
C      42.180950000000003     36.962100000000000     36.347000000000001
C      41.651949999999999     37.078200000000002     34.947099999999999
C      40.396250000000002     37.169999999999995     34.454799999999999
C      44.855649999999997     34.358499999999992     45.092099999999988
C      45.854350000000004     34.072600000000001     44.164899999999989
C      45.728349999999999     34.550800000000002     42.922599999999989
C      44.221550000000001     35.863600000000005     38.427599999999998
C      44.082549999999998     34.844100000000005     37.290799999999997
C      43.027349999999998     36.645400000000002     34.105300000000000
C      32.501050000000006     38.590400000000010     34.094100000000005
C      39.897150000000003     40.629399999999997     37.253199999999993
C      33.537950000000002     37.934400000000004     34.814799999999998
C      38.712850000000003     40.258699999999997     37.923700000000004
C      33.040350000000004     39.505100000000006     33.086599999999997
C      39.759450000000001     41.059199999999990     35.938600000000001
C      34.844750000000005     38.431699999999992     35.079599999999999
C      37.488450000000000     40.319200000000002     37.192999999999998
C      35.017550000000000     40.813400000000009     32.243900000000004
C      36.381349999999998     41.054800000000007     32.281299999999995
C      38.475450000000002     41.421700000000008     33.778399999999998
C      34.306650000000005     39.949800000000003     33.187100000000001
C      38.655750000000005     41.042700000000004     35.160400000000003
C      37.320049999999995     40.638200000000005     33.326799999999999
C      35.364850000000004     39.563999999999993     34.367300000000000
C      37.430149999999998     40.449100000000008     35.756700000000002
C      36.689850000000000     40.202500000000001     34.511900000000004
C      31.079350000000002     38.432000000000009     34.676499999999990
C      30.858950000000000     36.957699999999996     34.351199999999999
C      31.920149999999996     36.159400000000005     34.808900000000001
C      33.147050000000000     36.638300000000001     35.281600000000005
C      32.001450000000006     39.962600000000002     31.988799999999998
C      30.250150000000001     39.467399999999998     35.180000000000000
C      35.950549999999993     37.882600000000004     36.376499999999993
C      35.010550000000002     35.054300000000005     35.624600000000001
C      33.934649999999998     35.746700000000004     36.099799999999995
C      36.676050000000004     41.680100000000003     30.935099999999998
C      38.041950000000000     41.688800000000008     30.268300000000004
H      45.140650000000001     36.359300000000005     33.816099999999999
H      42.433749999999996     35.492900000000006     46.810899999999997
H      45.247949999999996     35.522299999999994     40.407299999999992
H      37.245249999999999     34.119300000000003     41.775399999999998
H      35.461749999999995     35.802800000000005     38.009099999999997
H      44.552750000000003     37.547100000000007     35.254799999999996
H      43.286250000000003     37.219400000000000     36.614899999999999
H      40.117950000000000     37.056899999999999     33.408999999999999
H      44.917650000000002     34.208500000000001     46.365500000000004
H      46.735250000000001     33.770700000000005     44.450699999999998
H      46.587849999999996     34.483100000000000     42.162099999999995
H      44.079750000000004     33.639000000000003     37.378499999999995
H      43.089350000000003     34.871800000000000     36.913999999999994
H      40.140549999999998     34.583600000000004     46.720099999999995
H      36.813949999999998     38.027400000000000     33.634799999999998
H      38.093450000000004     42.150099999999995     29.189100000000003
H      38.710149999999999     34.202699999999993     43.647200000000005
H      44.873649999999991     34.989100000000001     36.621099999999998
H      42.840349999999994     35.904500000000006     33.318199999999997
H      31.029450000000001     40.165500000000002     32.594599999999993
H      40.883350000000000     40.324400000000004     37.575499999999998
H      38.915950000000002     39.761800000000001     38.860999999999997
H      40.670150000000000     41.167000000000009     35.368599999999994
H      36.439750000000004     40.041199999999996     37.522899999999993
H      34.407849999999996     41.057300000000005     31.266900000000000
H      39.545850000000002     41.558600000000006     33.315800000000003
H      30.015750000000001     36.467700000000001     33.439799999999991
H      31.869950000000003     35.061900000000001     34.954199999999993
H      31.667250000000003     39.036000000000008     31.257999999999996
H      32.143949999999997     40.975400000000000     31.557899999999997
H      29.264749999999999     39.183700000000002     35.342300000000002
H      30.854649999999999     40.397300000000008     35.531399999999998
H      35.240150000000000     37.525300000000001     37.025199999999991
H      33.645649999999996     35.594500000000004     37.343799999999987
H      35.666650000000004     34.520199999999996     36.210400000000000
H      35.165649999999999     35.303100000000001     34.512799999999999
H      38.842350000000003     42.262099999999997     30.788199999999996
H      38.453050000000005     40.624299999999998     30.343200000000003
N      36.532950000000000     35.187800000000003     39.533899999999996
O      45.073249999999994     36.616799999999998     38.565899999999992
O      40.005850000000002     35.200099999999999     46.067000000000000
O      37.637450000000001     37.751499999999993     33.989799999999995
O      35.922950000000000     42.360999999999997     30.273000000000003
