23

C      39.133099999999992     39.150599999999997     38.159400000000005
C      37.925299999999993     39.097699999999989     37.269800000000004
C      37.082999999999998     37.840099999999993     37.476300000000009
C      37.473900000000000     36.627099999999999     38.123100000000008
C      38.592300000000002     36.880899999999997     38.870800000000003
C      39.389600000000002     38.060099999999991     38.925600000000003
C      36.018000000000001     37.631999999999991     36.379700000000014
C      40.050699999999992     40.364099999999993     38.232200000000006
C      37.373100000000001     40.325099999999992     36.762400000000014
H      37.595399999999998     34.751000000000005     38.107300000000009
H      40.069199999999995     36.130399999999995     39.950800000000001
H      40.522199999999998     38.950599999999994     40.291600000000003
H      35.878399999999999     38.728499999999997     36.070120000000003
H      35.155900000000003     37.082999999999998     36.923299999999998
H      40.844099999999997     40.700699999999998     39.022900000000007
H      39.450900000000004     40.930300000000003     38.842700000000008
H      37.169600000000003     40.768799999999999     35.708399999999997
H      36.367000000000004     36.825500000000005     35.729700000000008
H      37.822600000000001     41.248999999999995     37.165400000000005
H      40.402799999999999     40.602400000000003     37.230700000000013
O      36.849299999999999     35.385599999999997     38.154100000000014
O      39.178600000000003     35.991399999999985     39.748599999999996
O      40.367699999999999     38.153800000000004     39.862499999999997
