5

C      37.788499999999999     37.913199999999989     37.721449999999997
H      37.161500000000004     36.992999999999995     37.273550000000007
H      38.838499999999996     37.539400000000001     37.260050000000007
H      37.549599999999998     39.007000000000005     37.484050000000003
H      37.869399999999999     38.034799999999990     38.739949999999993
