40

C      36.874849999999995     35.832299999999989     40.066049999999990
C      37.592449999999992     34.754999999999995     39.259149999999998
C      37.723749999999995     39.334900000000005     36.749050000000004
C      38.444749999999999     38.367400000000004     35.947449999999996
C      36.510950000000001     37.177499999999995     39.640049999999995
C      38.011249999999990     35.381000000000000     38.024349999999991
C      37.023750000000000     39.024799999999999     37.902849999999994
C      38.526350000000001     36.967900000000000     36.460749999999997
C      36.810549999999999     37.706699999999998     38.328449999999997
C      37.714050000000000     36.684500000000000     37.636549999999993
C      36.606749999999998     35.447199999999995     41.353649999999995
C      36.922649999999997     34.218199999999996     41.787349999999989
C      37.782750000000000     33.389499999999998     41.067649999999993
C      38.161350000000006     33.674499999999995     39.773649999999996
C      38.017150000000001     40.790899999999993     36.628149999999998
C      38.942550000000004     41.214299999999994     35.684249999999992
C      39.410249999999991     40.145899999999997     34.873649999999991
C      39.390949999999997     38.780299999999997     34.998249999999992
C      35.779350000000001     37.537599999999998     41.036549999999998
C      35.924849999999999     36.405799999999985     42.045849999999987
C      39.015249999999995     42.741100000000003     35.715349999999994
C      40.480150000000002     40.519800000000004     33.876049999999999
H      38.596449999999997     34.649500000000003     37.296149999999990
H      36.648850000000003     39.750599999999991     38.713049999999996
H      39.135050000000000     36.164599999999993     36.117550000000001
H      36.596550000000001     33.930099999999996     42.872949999999989
H      38.190449999999998     32.460700000000003     41.484149999999993
H      37.677849999999999     41.197299999999998     37.562949999999994
H      39.715849999999989     38.153999999999996     34.158449999999995
H      34.738949999999996     37.881799999999998     40.911250000000003
H      36.400750000000002     38.384299999999996     41.434149999999995
H      35.438750000000006     36.379099999999994     43.017249999999997
H      39.596150000000002     33.489899999999992     38.366949999999996
H      39.678349999999995     43.539299999999997     35.489249999999991
H      38.748650000000005     42.947999999999993     37.015149999999998
H      37.992550000000001     42.786699999999996     35.491849999999992
H      41.224250000000005     41.209500000000006     34.684249999999999
H      41.261050000000004     39.799099999999996     33.509749999999997
H      40.134850000000000     41.176499999999990     32.982750000000003
O      39.138950000000001     32.971199999999996     39.175349999999995
