49

C      32.604247000000001     37.255300000000005     35.389799999999994
C      32.895897000000005     36.712700000000012     36.639900000000004
C      39.211196999999999     39.474400000000003     42.121800000000000
C      33.775677000000002     37.831100000000006     34.870700000000006
C      40.362947000000005     39.337700000000012     41.241699999999994
C      37.859707000000000     39.208200000000005     41.904900000000005
C      33.984317000000004     36.887100000000004     37.580100000000002
C      41.271217000000007     38.737399999999994     38.970400000000005
C      40.773537000000005     38.335000000000008     37.598200000000006
C      38.639407000000006     37.845700000000008     35.950500000000005
C      36.690667000000005     38.142800000000008     39.819600000000001
C      40.228856999999991     39.352200000000011     39.762300000000003
C      35.118566999999999     37.512400000000000     35.385700000000007
C      37.720376999999999     38.791700000000006     40.370300000000007
C      39.369686999999999     38.163200000000003     37.186300000000003
C      37.186777000000006     37.800900000000013     35.993600000000001
C      35.219847000000001     37.049999999999997     36.751300000000008
C      37.055486999999999     37.615600000000001     38.534100000000002
C      38.916347000000002     38.878900000000002     39.546000000000006
C      36.540587000000002     37.274000000000001     37.330100000000002
C      38.516566999999995     38.209300000000013     38.380599999999994
C      41.624317000000005     38.763200000000012     41.843600000000002
C      42.744716999999994     38.873900000000006     40.977800000000002
C      42.563017000000002     38.544899999999998     39.657800000000002
C      41.904316999999992     38.183599999999998     36.586400000000005
C      38.985866999999999     38.316900000000004     34.516800000000003
C      33.514026999999999     38.189800000000005     33.381400000000006
C      39.917726999999999     39.216000000000008     34.336900000000007
H      44.220517000000001     40.037000000000006     42.385099999999994
H      40.937357000000006     40.188199999999995     33.133500000000005
H      31.568683000000004     36.831999999999994     34.783500000000004
H      34.098087000000007     37.021200000000007     38.752600000000001
H      39.799827000000008     39.723600000000005     43.148699999999998
H      32.201147000000006     35.811800000000005     36.991300000000003
H      35.772166999999996     37.777400000000000     40.429800000000000
H      41.625017000000000     38.558700000000002     42.814100000000003
H      43.640017000000000     38.382300000000001     38.985100000000003
H      41.783516999999989     37.882900000000006     35.485099999999996
H      42.435417000000001     37.501999999999995     37.320700000000002
H      40.176896999999997     40.008600000000001     35.129800000000003
H      38.377677000000006     37.761499999999998     33.778300000000009
H      42.733716999999999     39.014200000000002     36.306800000000003
H      37.030816999999999     39.628200000000007     42.468399999999995
H      34.088797000000000     38.991000000000000     33.201100000000004
H      33.736157000000006     37.170199999999994     32.851300000000002
H      32.521077000000005     38.489599999999996     33.362200000000009
N      36.385767000000001     37.825200000000009     35.083700000000007
O      40.373266999999998     39.464299999999994     33.136500000000005
S      44.431316999999993     38.773700000000005     41.875900000000001
