36

C      37.649249999999995     37.078049999999998     38.527069999999995
C      36.560549999999992     36.772450000000006     37.527769999999997
C      40.216250000000002     36.707250000000002     34.951370000000004
C      39.086050000000000     36.778850000000006     38.263470000000005
C      36.883950000000013     36.652850000000001     36.181370000000001
C      40.659150000000011     36.672350000000002     36.269770000000001
C      39.388950000000008     36.641950000000001     36.896770000000004
C      38.327550000000002     36.773049999999998     35.810570000000006
C      37.305650000000000     37.748649999999998     39.831470000000003
C      35.929150000000007     38.159149999999997     39.708869999999997
C      34.913349999999994     37.287149999999997     39.365569999999991
C      35.234150000000000     36.585049999999995     38.184970000000000
C      40.024550000000005     36.743950000000005     39.491470000000000
C      39.597149999999999     38.083550000000002     40.418970000000002
C      38.278750000000002     38.775250000000000     40.449969999999993
C      39.560449999999989     37.966249999999995     42.026570000000000
C      40.263550000000009     38.825649999999996     42.560870000000001
C      40.987050000000011     36.433450000000001     33.784739999999999
C      37.845550000000003     39.589050000000007     41.392969999999998
H      41.766550000000009     36.727850000000004     36.704470000000001
H      35.719850000000008     39.158949999999997     40.292670000000001
H      33.838750000000005     37.377550000000006     39.731970000000004
H      34.563350000000000     36.051450000000003     37.288670000000003
H      41.181950000000001     36.696750000000002     39.251569999999994
H      39.697749999999999     35.960150000000006     40.247369999999997
H      40.527550000000005     38.671350000000004     40.142669999999995
H      41.077650000000006     38.387949999999996     43.306770000000000
H      40.345649999999992     36.557950000000005     32.693230000000000
H      36.872550000000004     39.902249999999995     41.790570000000002
H      38.555250000000001     40.039849999999994     42.145270000000004
H      40.685450000000003     39.439949999999996     41.805669999999999
H      36.325550000000007     36.835550000000005     34.480269999999997
N      38.879350000000002     36.845349999999996     34.659770000000002
O      39.174350000000004     36.920649999999995     42.549770000000002
O      42.161249999999995     36.675650000000005     33.891740000000006
O      35.805250000000001     36.579750000000004     35.324270000000006
