79

C      40.405314999999995     40.933049999999994     41.127449999999996
C      38.106205000000003     36.777750000000005     37.915750000000003
C      37.615645000000001     35.493750000000006     38.507849999999991
C      40.144215000000003     33.919849999999997     34.387250000000009
C      40.217415000000003     32.750450000000001     35.384350000000012
C      38.715555000000002     36.702350000000003     36.598650000000006
C      37.973965000000000     34.238950000000003     38.161150000000006
C      39.768315000000001     35.078650000000003     34.988350000000004
C      39.288415000000001     32.958250000000007     36.441950000000006
C      39.156885000000003     35.278350000000003     36.105650000000011
C      38.638865000000003     34.129050000000007     36.879350000000002
C      38.250635000000003     38.051250000000003     38.704650000000001
C      37.184664999999995     38.144350000000003     39.668750000000003
C      36.346924999999999     37.059650000000005     39.881750000000011
C      36.472245000000001     35.803050000000006     39.382550000000009
C      39.503214999999997     37.801750000000006     36.189750000000004
C      40.181915000000004     38.655050000000003     37.171449999999993
C      39.670115000000003     38.455550000000002     38.621350000000007
C      38.138945000000000     33.243750000000006     39.531050000000008
C      35.455505000000002     34.720249999999993     39.877550000000014
C      38.982824999999998     32.788849999999996     40.415649999999999
C      40.955015000000003     33.904150000000001     33.150450000000006
C      41.611815000000000     31.687850000000005     34.051349999999999
C      42.097314999999995     30.392150000000001     33.625550000000004
C      42.706515000000003     29.831850000000003     32.581650000000010
C      38.494105000000005     42.588250000000009     43.028550000000010
C      38.109004999999996     43.772250000000007     42.160950000000014
C      35.333375000000004     40.531950000000002     39.893350000000012
C      34.396394999999998     41.594550000000005     40.325350000000014
C      38.065155000000004     41.470249999999993     42.268549999999991
C      36.663785000000004     43.940749999999994     41.821250000000006
C      36.396484999999998     40.259549999999997     40.779249999999990
C      34.654764999999998     42.663950000000000     41.115550000000013
C      36.766914999999997     41.463950000000004     41.588450000000009
C      36.072485000000000     42.716149999999999     41.536250000000010
C      39.164914999999993     40.421650000000007     42.142750000000007
C      38.661694999999995     39.239049999999999     41.373650000000012
C      37.437854999999992     39.164949999999997     40.643650000000008
C      39.769914999999997     42.567950000000003     43.812050000000013
C      36.356445000000001     45.367750000000008     42.145150000000001
C      37.164835000000004     46.485349999999997     41.426750000000013
H      38.129095000000000     46.718950000000000     41.979050000000001
H      40.251715000000004     41.923650000000002     40.664950000000005
H      41.182015000000000     40.928550000000008     41.937550000000002
H      40.955815000000001     40.149050000000010     40.629049999999992
H      39.313715000000002     32.337250000000004     37.377750000000006
H      35.655295000000002     37.090650000000004     40.759950000000003
H      39.592015000000004     36.246450000000003     33.249050000000011
H      40.233615000000000     37.349350000000001     35.581850000000003
H      41.190015000000002     38.451350000000005     37.014950000000013
H      40.164915000000001     39.707149999999999     36.864750000000001
H      40.043615000000003     39.603150000000007     38.788550000000001
H      40.596414999999993     38.032450000000004     39.382450000000006
H      37.109604999999995     32.847450000000002     40.059249999999992
H      35.755205000000004     33.688950000000006     40.006250000000009
H      34.692185000000002     35.197350000000000     39.268350000000012
H      35.404184999999998     35.058349999999997     40.848650000000006
H      40.065215000000002     32.632650000000005     40.345350000000010
H      38.497015000000005     32.183350000000004     41.160049999999998
H      41.814114999999994     34.466949999999997     33.121450000000010
H      40.244015000000005     34.203450000000004     32.305750000000003
H      41.433314999999993     29.758450000000003     34.442450000000001
H      43.199114999999999     29.938950000000006     31.565350000000006
H      42.755614999999999     28.667650000000002     32.436050000000002
H      38.928894999999997     44.565349999999995     42.377650000000003
H      35.035895000000004     40.073550000000004     39.078550000000007
H      33.874624999999995     43.626250000000006     41.413350000000008
H      39.504715000000004     40.059450000000005     43.088250000000002
H      39.184515000000005     38.279650000000004     41.654550000000015
H      39.980114999999998     41.773450000000004     44.434649999999991
H      36.630645000000001     47.332349999999998     41.575250000000011
H      37.202645000000004     46.218350000000008     40.354950000000002
H      32.888655000000000     40.298050000000011     38.882650000000012
N      41.081814999999999     31.771849999999997     35.226350000000011
O      41.432914999999994     32.344849999999994     32.955850000000005
O      39.977514999999997     36.121150000000000     34.095450000000000
O      40.417115000000003     43.555349999999997     43.753450000000001
O      35.425184999999999     45.598749999999995     42.891350000000003
S      32.800885000000001     41.685049999999997     39.408950000000004
