43

C      34.555334999999992     33.684654999999992     35.817269999999994
C      38.337575000000008     36.620554999999996     38.504700000000000
C      37.944175000000008     36.833055000000002     39.836240000000004
C      41.346865000000001     40.438670999999999     39.019780000000011
C      40.531895000000006     41.029875000000004     40.158750000000012
C      39.331495000000011     37.482455000000002     37.808349999999990
C      38.601625000000013     37.846755000000002     40.590640000000008
C      40.943494999999999     39.232855000000001     38.333280000000002
C      39.532995000000007     40.148365000000013     40.667280000000005
C      39.714885000000010     38.615854999999996     38.598450000000000
C      39.220965000000000     39.003154999999992     39.953770000000006
C      37.272265000000004     35.891255000000001     37.849470000000011
C      36.404385000000005     34.941755000000001     38.430490000000006
C      36.841445000000007     34.619254999999995     39.885210000000001
C      37.508715000000002     35.570054999999996     40.633690000000001
C      42.639215000000007     41.029195000000001     38.655770000000004
C      42.785184999999998     42.315135000000012     39.189599999999999
C      40.767245000000003     42.389364999999998     40.036839999999998
C      37.242375000000010     35.856854999999996     36.291789999999992
C      36.459175000000002     35.165954999999997     35.450600000000009
C      35.584960000000002     34.219054999999997     36.237859999999998
C      35.631171000000009     34.099354999999989     37.658339999999995
C      40.416744999999999     36.712654999999998     37.017840000000007
C      33.118835000000004     33.706654999999998     36.510010000000008
H      34.736534999999996     33.349054999999993     34.843429999999998
H      32.678034999999994     32.829854999999995     36.944419999999994
H      38.403125000000003     37.857455000000002     41.605220000000003
H      41.461345000000001     38.821754999999996     37.394359999999992
H      39.016825000000011     40.075039200000006     41.664929999999998
H      37.013295000000006     33.551654999999997     39.967020000000005
H      38.363424999999999     36.075355000000002     41.580669999999998
H      43.176745000000004     40.697312000000011     37.767859999999999
H      43.540064999999998     43.030785000000009     38.818490000000011
H      36.415735000000005     35.085155000000000     34.335070000000002
H      38.007935000000010     36.540454999999994     35.750640000000004
H      35.263734999999997     33.190654999999992     38.273420000000002
H      40.142485000000001     43.170145000000005     40.579189999999997
H      40.981965000000002     37.307154999999995     36.165480000000002
H      41.211925000000001     36.497855000000001     37.697749999999999
H      40.037895000000013     35.785354999999996     36.656759999999991
H      33.135535000000004     34.286754999999999     37.398330000000001
H      32.459935000000002     34.079654999999988     35.635930000000002
N      41.822635000000012     43.046935000000005     39.784319999999994
