6

C      38.514349999999993     38.171299999999995     37.529369999999993
C      37.891749999999995     37.506299999999996     38.564540000000001
H      38.340449999999997     38.191100000000006     36.465209999999999
H      38.944650000000003     39.178199999999997     37.714709999999997
H      38.507550000000002     37.760000000000005     39.534790000000001
H      37.055349999999997     36.821800000000003     38.507170000000002
