106

C      31.175999999999998     31.606800000000000     43.308399999999992
C      30.680800000000009     32.012799999999991     41.994399999999992
C      35.210099999999997     34.463699999999996     42.244599999999998
C      34.528000000000006     35.056500000000000     41.186000000000000
C      32.459900000000005     32.194299999999998     43.667600000000000
C      31.305600000000002     33.010999999999996     41.128099999999996
C      34.514499999999998     33.533999999999999     43.143500000000003
C      33.152500000000003     34.677199999999999     40.959499999999991
C      33.054800000000000     33.263099999999994     42.936300000000003
C      32.607300000000009     33.448700000000002     41.524700000000003
C      32.864699999999999     32.361599999999996     45.166099999999993
C      34.242500000000007     32.386199999999995     45.284600000000005
C      35.038700000000006     33.147499999999987     44.405600000000000
C      30.745500000000003     33.712500000000006     40.038400000000003
C      31.216100000000001     34.987200000000001     39.648400000000002
C      32.474199999999996     35.465199999999989     39.951599999999999
C      35.125600000000006     36.340000000000003     40.409100000000002
C      35.197999999999993     36.024299999999997     39.110700000000001
C      35.186999999999998     34.036500000000004     37.617600000000003
C      35.775800000000004     32.742400000000004     37.204599999999999
C      33.328199999999995     33.837699999999998     33.000000000000000
C      33.465400000000002     32.316800000000001     33.021400000000000
C      34.847200000000001     34.939800000000005     36.381100000000004
C      35.547299999999993     32.034899999999993     36.114000000000004
C      33.715199999999996     34.740399999999987     34.097100000000005
C      34.035300000000007     31.794300000000007     34.254200000000004
C      34.262799999999999     34.175300000000007     35.247399999999999
C      34.578900000000004     32.705599999999997     35.275700000000001
C      35.655599999999993     34.529499999999999     38.821500000000000
C      36.795000000000002     34.180099999999989     39.607999999999997
C      37.327799999999996     32.914599999999993     39.230699999999999
C      36.920100000000005     32.270399999999988     38.033099999999997
C      32.575699999999998     34.202999999999996     31.826999999999995
C      32.330100000000002     33.349299999999999     30.743200000000002
C      32.805599999999998     32.032999999999994     30.798700000000004
C      33.539500000000004     31.489900000000006     31.854700000000001
C      45.436000000000007     41.133050000000004     40.922199999999997
C      38.795999999999992     40.925270000000012     41.306200000000004
C      38.102800000000002     42.160520000000005     41.679600000000001
C      34.610799999999998     39.510400000000004     39.612700000000004
C      38.036000000000001     39.823180000000008     40.605300000000000
C      36.798699999999997     42.311510000000006     41.138600000000004
C      35.958300000000008     38.870300000000007     39.888500000000001
C      36.693600000000004     40.009960000000007     40.589900000000000
C      35.927700000000002     41.215580000000003     40.925600000000003
C      40.218800000000002     40.830170000000003     41.548400000000001
C      41.105699999999999     41.970959999999998     41.936300000000003
C      40.307100000000005     43.033300000000004     42.334299999999999
C      39.105100000000007     43.208120000000008     42.068200000000004
C      40.929299999999998     39.591640000000005     41.048899999999996
C      42.172899999999998     39.331710000000008     41.475999999999999
C      42.999499999999998     40.435820000000000     42.036300000000004
C      38.741100000000003     38.513680000000001     40.150300000000001
C      40.044200000000004     38.404710000000009     40.550899999999999
C      36.297600000000003     43.816200000000009     41.483800000000002
C      37.010999999999996     44.803630000000013     41.684600000000003
C      38.444500000000005     44.849589999999999     42.101199999999999
C      44.167400000000001     40.131940000000007     41.000999999999998
C      43.685100000000006     39.958030000000008     43.359300000000005
H      30.610699999999998     31.169899999999998     43.947299999999998
H      29.781200000000002     31.505300000000005     41.527799999999999
H      32.430900000000008     31.605000000000004     45.826999999999991
H      32.244100000000003     33.261599999999994     45.473600000000005
H      34.638500000000008     32.367900000000006     46.243800000000000
H      36.200299999999999     33.030400000000000     44.968299999999999
H      29.853400000000004     33.554400000000001     39.452199999999998
H      30.690000000000001     35.608800000000002     38.807200000000002
H      32.714299999999994     36.386600000000001     39.978200000000001
H      35.575699999999998     35.756900000000002     36.126899999999999
H      34.918500000000009     36.767899999999990     38.184800000000003
H      33.936900000000009     35.756699999999995     36.608999999999995
H      36.377300000000005     31.271400000000000     36.094799999999992
H      33.534300000000002     35.856699999999996     34.302100000000003
H      34.280299999999997     30.713499999999996     34.297399999999996
H      37.427300000000002     34.798000000000002     40.411900000000003
H      37.452100000000002     31.215299999999999     37.801499999999997
H      32.096299999999999     35.247399999999999     32.049300000000002
H      31.924100000000006     33.564599999999992     29.756200000000000
H      33.674000000000007     30.200599999999994     32.001100000000001
H      32.730699999999999     31.288200000000003     29.910699999999999
H      33.613000000000000     38.800540000000005     39.840800000000002
H      34.380600000000001     39.966370000000005     38.559400000000004
H      44.994500000000002     42.045670000000001     40.567900000000002
H      38.125600000000006     32.426500000000004     40.163200000000003
H      43.076000000000008     42.621930000000006     42.473800000000004
H      46.218800000000002     40.755929999999999     40.176099999999998
H      42.506900000000002     38.452460000000002     41.251099999999994
H      36.822900000000004     34.625699999999995     44.228000000000002
H      36.262200000000007     38.706860000000006     38.827300000000001
H      40.891700000000000     43.795770000000012     43.101800000000004
H      38.151600000000002     37.624801000000005     39.835100000000004
H      40.543000000000006     37.350039000000010     40.344700000000003
H      45.817599999999999     41.610600000000005     41.954000000000001
H      36.513100000000009     45.799400000000006     41.638299999999994
H      35.170299999999997     43.874310000000008     40.940200000000004
H      39.074100000000001     45.447290000000010     41.356099999999998
H      38.427700000000002     45.211190000000009     43.132699999999993
H      44.771200000000007     39.507690000000011     41.419000000000004
H      43.832800000000006     38.830980000000004     43.358299999999993
H      44.024699999999996     39.368430000000011     40.073100000000004
H      44.415500000000009     40.456390000000006     44.113900000000001
H      43.000399999999999     40.065590000000000     44.103600000000000
N      42.427199999999999     41.905660000000012     42.187300000000000
O      35.371700000000004     37.533006000000000     40.787299999999995
S      36.886899999999997     34.647599999999990     42.824800000000003
S      34.242199999999997     41.211060000000010     40.747100000000003
