5

C      38.246349999999985     37.918399999999991     37.650199999999998
H      37.976849999999999     37.495000000000005     38.770199999999996
H      38.729550000000003     37.183000000000007     37.229800000000004
H      37.110849999999999     38.018900000000002     37.461299999999994
H      38.889150000000001     38.816999999999993     37.377000000000002
