6

C      38.399699999999996     38.561189999999996     38.297860000000000
C      37.944000000000003     37.888389999999987     37.116500000000002
H      37.806500000000000     39.210239999999999     39.201979999999992
H      39.077500000000001     38.369460000000004     39.247669999999999
H      38.074100000000001     36.789760000000001     37.107029999999995
H      36.922499999999999     38.345619999999997     36.752330000000001
