6

C      37.573219999999992     37.351099999999988     37.777894999999994
C      38.451919999999987     38.109899999999996     38.498185000000007
H      38.449219999999997     38.873699999999999     39.351504999999996
H      37.398719999999997     37.473999999999990     36.648495000000004
H      39.403419999999997     38.495100000000001     37.996705000000006
H      36.596580000000003     37.126300000000001     38.287664999999997
