5

C      37.713139999999996     37.978599999999993     37.933949999999996
H      37.217480000000002     38.885500000000000     38.013550000000009
H      38.782519999999998     38.057499999999997     37.803950000000007
H      37.756010000000003     37.426299999999998     38.816449999999996
H      37.545160000000003     37.114500000000000     37.183550000000004
