6

C      37.395199999999996     38.491549999999997     37.940849999999990
C      37.861100000000000     37.224750000000000     37.512650000000008
H      37.789200000000001     39.589549999999996     37.669449999999998
H      36.961100000000002     38.836550000000003     38.885850000000005
H      39.038899999999998     37.007950000000001     37.114149999999995
H      37.233000000000004     36.410450000000004     37.728449999999995
