37

C      35.888849999999998     38.561399999999999     37.739979999999989
C      42.640349999999998     37.554700000000004     39.219149999999999
C      36.269250000000000     37.257400000000004     37.987150000000000
C      41.639850000000010     36.489400000000003     39.460930000000005
C      36.789450000000002     39.384600000000006     36.888559999999998
C      42.247849999999993     38.688099999999999     38.449979999999996
C      37.672850000000004     36.970900000000000     38.145880000000005
C      40.410350000000001     36.545600000000007     38.900030000000001
C      39.262949999999996     40.150999999999996     36.659620000000004
C      40.568049999999999     39.776100000000000     36.897239999999996
C      38.184049999999999     39.254700000000000     37.118700000000004
C      41.026150000000001     38.626700000000000     37.697440000000000
C      38.582850000000008     37.949800000000003     37.688060000000007
C      40.006250000000009     37.595900000000000     37.981790000000004
C      38.079349999999998     35.871710000000007     38.864150000000009
C      34.498550000000009     38.880900000000004     37.667330000000007
C      33.593750000000000     37.885900000000007     38.064189999999996
C      33.912450000000007     36.626100000000008     38.732340000000008
C      35.328250000000004     36.468100000000007     38.916159999999991
C      35.790550000000003     35.348530000000004     39.616300000000010
C      37.056250000000006     34.951270000000008     39.317360000000008
C      36.245750000000001     40.685700000000004     36.322980000000001
C      34.859350000000006     40.980100000000007     36.666210000000007
C      33.894150000000003     40.024499999999996     37.063490000000002
H      37.519050000000000     33.979100000000003     39.767910000000001
H      43.415649999999999     37.568800000000003     39.956900000000005
H      41.803050000000006     35.697339999999997     40.262920000000008
H      42.917650000000009     39.817600000000006     38.307990000000004
H      38.971550000000008     40.898099999999999     35.784537000000000
H      41.124850000000009     40.409900000000007     36.035640000000001
H      32.584350000000001     37.840900000000005     38.094839999999991
H      32.974049999999998     36.173410000000004     38.966540000000009
H      35.258350000000007     34.741770000000002     40.338799999999992
H      36.807850000000002     41.326000000000001     35.661200000000008
H      34.242650000000005     42.020899999999997     36.358789999999999
H      32.897050000000007     40.377699999999997     37.014539999999997
N      39.322450000000003     35.795440000000006     39.335239999999999
