46

C      37.370899999999999     35.119999999999990     38.838399999999993
C      38.438900000000004     35.871899999999997     39.357099999999988
C      37.812500000000000     43.363499999999995     36.847300000000004
C      36.414500000000004     35.420699999999989     37.783000000000001
C      36.886800000000001     42.845299999999988     35.907499999999999
C      38.040300000000002     42.500399999999992     37.923200000000008
C      38.245699999999999     37.227100000000000     38.868399999999994
C      35.662500000000009     40.526199999999996     36.122700000000009
C      35.239900000000006     37.779399999999995     36.559599999999989
C      37.612899999999996     40.109299999999998     38.335000000000008
C      36.346000000000004     41.627499999999991     36.538600000000002
C      37.295200000000001     41.336299999999994     37.723700000000008
C      36.267200000000003     36.760799999999996     37.419400000000010
C      35.812400000000004     39.174499999999995     36.816500000000005
C      37.110100000000003     37.652399999999993     38.017799999999994
C      36.886099999999999     39.093299999999992     37.718399999999988
C      38.759299999999996     38.345299999999995     39.711900000000000
C      38.526400000000002     39.816199999999988     39.519299999999987
C      37.398700000000005     33.769599999999997     39.323899999999995
C      38.368500000000004     33.448499999999996     40.242899999999992
C      39.656799999999997     34.088200000000001     40.478400000000008
C      39.596399999999996     35.388599999999997     40.077800000000011
C      40.293600000000005     36.588600000000000     40.579999999999998
C      39.775300000000001     37.944899999999997     40.721599999999995
C      40.730100000000000     33.694800000000001     41.452700000000007
C      36.257399999999997     43.279699999999998     34.562500000000000
C      36.453400000000002     32.649000000000001     38.849200000000010
H      35.898600000000002     32.233699999999992     39.776000000000010
H      41.631900000000002     34.129100000000001     41.835699999999989
H      38.210000000000001     44.474100000000000     36.866499999999988
H      35.487000000000002     34.748500000000000     37.551400000000001
H      38.796800000000005     42.638899999999992     38.831900000000005
H      34.744399999999999     40.542399999999994     35.498100000000008
H      34.368099999999998     37.803999999999995     37.213900000000010
H      34.949200000000005     37.517199999999988     35.534800000000004
H      41.404700000000005     36.764699999999998     40.856199999999987
H      40.183500000000002     38.750200000000000     41.505400000000009
H      40.047799999999995     40.424199999999999     40.256500000000003
H      36.233400000000003     42.540900000000001     33.940899999999999
H      35.048700000000004     43.616599999999991     34.750900000000001
H      36.715200000000003     44.184899999999999     34.141100000000009
H      36.864200000000004     31.525900000000000     39.045500000000004
H      35.684600000000003     32.830099999999995     38.002199999999988
H      38.020000000000003     32.392599999999995     40.717199999999991
O      40.505399999999995     32.695000000000000     42.059100000000001
O      39.071300000000001     40.603999999999999     40.535700000000006
