6

C      37.488730499999988     38.258049999999997     38.475749999999991
C      38.353430500000002     37.749949999999998     37.639850000000003
H      38.000430500000007     37.248649999999998     36.719250000000002
H      39.519869500000013     37.961649999999992     37.557449999999996
H      36.480130499999987     38.121049999999997     38.449649999999998
H      37.986930500000000     38.751350000000002     39.280749999999998
