33

C      38.198249999999987     38.461189999999995     38.107749999999996
C      38.838350000000005     39.537480000000002     37.471450000000004
C      42.469149999999999     37.054901999999991     38.506250000000009
C      38.826449999999994     37.290517000000001     38.779249999999998
C      40.278649999999985     39.384149999999998     37.423050000000003
C      41.299149999999983     36.432879999999990     39.060650000000010
C      40.235549999999989     37.310828000000001     38.559250000000006
C      41.002649999999988     38.474010000000000     38.071750000000002
C      36.817049999999995     38.680109999999999     38.492350000000009
C      36.142049999999998     39.642550000000000     37.578550000000000
C      36.891350000000003     40.561969999999995     36.768350000000005
C      35.924250000000001     37.759436999999991     39.198950000000004
C      34.546650000000000     37.846620000000001     39.354149999999997
C      33.946150000000003     38.691369999999999     38.348750000000010
C      34.676749999999998     39.459079999999993     37.540050000000008
C      41.144050000000007     40.425909999999995     36.687950000000008
C      41.668350000000004     35.007680000000001     39.419750000000008
H      43.213350000000005     36.357979999999998     38.043450000000000
H      38.228049999999996     36.469580000000001     39.096550000000001
H      36.149850000000001     41.283759999999994     36.300950000000007
H      36.545150000000007     37.100222000000002     39.729950000000009
H      32.843550000000008     38.879119999999993     38.516650000000006
H      34.332750000000004     40.123809999999999     36.591650000000008
H      40.990250000000003     40.051369999999991     35.481949999999998
H      32.786649999999995     37.580849999999998     40.058150000000005
H      41.774050000000003     34.741379999999999     40.518050000000002
H      40.871250000000003     34.604879999999994     38.543149999999997
H      42.727549999999994     34.531579999999998     39.149850000000008
H      42.141850000000005     40.525150000000004     36.783450000000002
H      40.837350000000001     41.468420000000002     36.813950000000006
N      42.221549999999993     38.233609999999999     37.889550000000007
N      38.160449999999997     40.481230000000004     36.842050000000008
O      33.666349999999994     37.239283999999998     40.131550000000004
