5

C      37.780249999999995     37.960799999999992     37.992049999999992
H      37.624949999999998     37.798899999999996     39.077649999999998
H      38.472250000000003     37.013399999999997     38.278549999999996
H      37.527749999999997     37.753900000000002     36.922350000000002
H      37.929549999999992     38.986600000000003     37.606850000000001
