5

C      38.189099999999996     38.242199999999997     37.992800000000003
H      38.081900000000005     38.719999999999999     39.014799999999994
H      37.329900000000002     38.230599999999995     37.555400000000006
H      38.670099999999998     38.864999999999995     36.985200000000006
H      38.527200000000001     37.135000000000005     38.067200000000000
