5

C      37.730199999999996     38.264349999999993     37.957789999999989
H      37.353999999999999     38.859749999999998     37.089570000000002
H      38.827100000000002     38.430149999999998     38.206750000000000
H      37.172899999999998     38.589849999999998     38.910429999999998
H      37.599499999999999     37.140250000000002     37.775479999999995
