64

C      39.584099999999999     35.677199999999999     37.828999999999994
C      40.405500000000004     36.340899999999998     36.814900000000002
C      35.158500000000004     41.621500000000005     37.655999999999999
C      36.203700000000005     42.058400000000006     36.617500000000000
C      38.299000000000007     36.349999999999994     37.897499999999994
C      39.906399999999998     37.358100000000000     35.785000000000004
C      35.150200000000005     40.154000000000003     37.493500000000004
C      37.243800000000007     41.199699999999993     36.146000000000001
C      36.479800000000004     38.009400000000007     37.307200000000002
C      38.171100000000003     39.192100000000003     35.327900000000000
C      37.718199999999996     37.404800000000002     36.966799999999999
C      38.646100000000004     37.935200000000002     35.923999999999999
C      36.197899999999997     39.266200000000005     36.984299999999998
C      37.273600000000002     39.954000000000001     36.102799999999995
C      39.838700000000003     34.492100000000001     38.513100000000001
C      41.075400000000002     33.683700000000002     38.116999999999997
C      42.000600000000006     34.410300000000007     37.250700000000002
C      41.641999999999996     35.674600000000005     36.599699999999999
C      34.513900000000007     42.614300000000000     38.399200000000000
C      34.788600000000002     43.963500000000003     38.307599999999994
C      35.368600000000008     44.319600000000001     37.006999999999998
C      36.133500000000005     43.441900000000004     36.168199999999999
C      39.197400000000002     34.022399999999998     39.720499999999994
C      39.076500000000003     32.603600000000007     39.900900000000000
C      40.132000000000005     31.865700000000004     39.346199999999996
C      41.067599999999999     32.330500000000008     38.377400000000002
C      37.674300000000002     36.189600000000006     39.377900000000004
C      38.363800000000005     35.148300000000006     40.287599999999991
C      39.613699999999994     30.456199999999995     39.638100000000001
C      39.220799999999997     36.180900000000001     40.978500000000004
C      38.393000000000008     37.382200000000005     40.550699999999999
C      33.966900000000003     41.922100000000000     39.673499999999997
C      38.919600000000003     39.690400000000004     34.330599999999997
C      35.932600000000008     45.731299999999997     36.760300000000001
C      39.379100000000008     39.161799999999999     39.160800000000002
C      39.678300000000007     38.192000000000000     40.144100000000002
H      34.444500000000005     40.878400000000006     39.843100000000000
H      40.641700000000007     37.466199999999994     35.013500000000001
H      34.238300000000002     39.871799999999993     38.189799999999998
H      38.041800000000002     41.684399999999997     35.400199999999991
H      42.849700000000006     34.065000000000005     36.919199999999996
H      42.324800000000003     36.509900000000002     35.892899999999997
H      34.525800000000004     44.764100000000006     38.963100000000004
H      36.667700000000004     43.836600000000004     35.205300000000001
H      38.318600000000004     32.131000000000007     40.528899999999993
H      41.701999999999998     31.626400000000004     37.833700000000000
H      36.490800000000000     36.148600000000002     39.604399999999998
H      37.446000000000005     34.840200000000003     40.758000000000003
H      38.543099999999995     30.168800000000005     39.917699999999996
H      40.530499999999996     35.596600000000002     40.720700000000001
H      39.230400000000003     35.909600000000005     42.026499999999999
H      37.737100000000005     38.060800000000000     41.370899999999999
H      33.150299999999994     41.229499999999994     39.311199999999992
H      33.694200000000002     42.640499999999996     40.451400000000000
H      38.640900000000002     40.740700000000004     34.131300000000003
H      39.741800000000005     39.136100000000006     33.973500000000001
H      36.505900000000004     45.843499999999999     35.832699999999996
H      36.281199999999998     46.490099999999998     37.661700000000003
H      34.964200000000005     46.143899999999995     36.166699999999999
H      40.431600000000003     39.863100000000003     38.862099999999998
H      38.386200000000002     39.553699999999999     39.049299999999995
H      40.681800000000003     37.952000000000005     40.011799999999994
H      36.029800000000002     37.408900000000003     37.975599999999993
O      40.246600000000001     29.509900000000002     39.183699999999988
