42

C      38.870077999999992     37.107349999999997     39.664299999999997
C      37.721554999999995     38.036349999999999     39.724000000000011
C      39.866974999999982     38.874849999999995     35.313500000000005
C      38.837665000000001     39.750450000000001     35.051300000000005
C      40.043374999999997     37.572049999999990     38.808700000000009
C      37.397654999999986     38.888249999999999     38.548999999999999
C      40.503005000000002     38.550249999999991     36.480000000000011
C      37.994754999999998     39.515849999999986     36.177800000000005
C      39.741985000000000     38.357050000000001     37.571000000000005
C      38.298655000000011     38.899349999999998     37.376600000000003
C      38.987112999999994     36.174149999999997     40.688600000000001
C      38.348854999999986     36.588350000000005     41.907200000000010
C      37.384954999999991     37.499349999999993     42.104000000000006
C      36.822054999999992     38.141249999999999     40.899700000000003
C      40.759634999999989     38.889250000000004     34.145100000000006
C      41.083304999999982     39.996549999999999     33.531300000000002
C      40.068725000000001     41.130349999999993     33.519000000000005
C      38.786203999999998     40.961849999999998     34.265700000000002
C      41.198804999999993     36.789249999999996     38.953000000000010
C      41.072384999999997     35.560350000000000     39.765599999999999
C      39.935964999999996     35.067049999999995     40.437199999999990
C      36.048354999999987     39.281049999999993     38.535100000000007
C      35.445755000000005     38.901549999999986     40.753800000000005
C      34.873054999999994     38.641749999999988     39.424700000000009
H      39.242948999999996     37.866249999999994     35.124100000000006
H      37.049954999999997     40.027850000000001     36.022200000000005
H      38.605258999999990     36.104950000000002     42.806600000000010
H      36.849055000000007     37.744850000000000     43.168600000000005
H      41.949254999999994     40.003950000000003     32.831399999999995
H      40.315764999999999     42.028350000000003     33.161299999999997
H      37.853354999999993     41.551149999999993     34.305800000000005
H      42.133244999999988     36.831149999999994     38.352800000000009
H      42.036064999999994     35.066249999999997     39.647500000000001
H      39.987694999999988     33.971649999999997     40.595199999999991
H      35.797254999999993     40.085750000000004     38.063900000000011
H      33.866755000000012     39.047250000000005     39.262999999999991
H      34.527454999999989     39.361850000000004     41.488900000000008
H      42.107854999999986     37.556250000000006     33.034599999999998
H      34.725054999999998     37.448049999999995     39.426199999999994
H      35.973554999999990     40.002749999999992     40.568300000000001
H      41.690794999999994     38.774550000000005     36.508799999999994
O      41.311114999999987     37.652550000000005     33.732399999999998
