26

C      36.917564999999996     38.940829999999991     40.532699999999998
C      37.426405000000003     36.967829999999999     36.012900000000002
C      36.499255000000005     37.472029999999997     36.900500000000001
C      37.016045000000005     38.456229999999998     37.843299999999999
C      38.086495000000006     39.264429999999990     37.779299999999999
C      38.872255000000003     38.955630000000006     36.670299999999997
C      38.697335000000002     37.563930000000006     36.141500000000001
C      39.884215000000005     37.193829999999998     35.302399999999999
C      39.958105000000003     39.966564000000005     36.247599999999998
C      36.316645000000001     38.254430000000006     39.206899999999997
H      36.115965000000003     39.818530000000003     40.417700000000004
H      37.547755000000002     39.853130000000000     40.321999999999996
H      36.663445000000003     38.201929999999997     41.373699999999999
H      40.966614999999997     37.567630000000001     35.170999999999999
H      37.491255000000002     35.042629999999996     34.893300000000004
H      37.861905000000000     40.857814000000005     39.052000000000000
H      39.592335000000006     40.957370000000004     35.953499999999998
H      40.727984999999997     40.245228000000004     37.024099999999997
H      40.180764999999994     39.925747400000006     35.115099999999998
H      36.366875000000000     37.180129999999998     39.295600000000000
H      35.287195000000004     38.427830000000007     38.894100000000002
H      35.033385000000003     37.368330000000007     35.764699999999998
O      39.690795000000001     36.214130000000004     34.626300000000001
O      37.040665000000004     35.972730000000006     35.136299999999999
O      38.564135000000000     40.296305000000011     38.688699999999997
O      35.086175000000004     37.309729999999995     36.763500000000001
