39

C      38.416950000000000     36.508550000000000     36.795249999999996
C      37.727450000000005     39.681350000000009     40.163049999999998
C      37.518450000000001     36.640450000000001     37.886650000000003
C      39.073850000000007     37.503349999999998     35.844450000000009
C      37.268550000000005     38.311449999999994     39.730449999999990
C      38.924450000000000     40.335449999999994     35.832449999999994
C      38.207850000000008     40.758550000000000     39.294550000000001
C      38.821950000000008     41.327349999999996     37.059049999999999
C      37.486550000000008     38.028850000000006     38.358949999999993
C      38.936450000000001     38.888850000000005     36.148449999999997
C      38.244850000000007     40.356949999999998     37.858950000000007
C      38.108750000000008     38.938249999999996     37.419349999999994
C      38.706150000000008     35.236950000000007     36.622850000000000
C      37.945850000000007     34.129849999999990     37.117350000000002
C      37.197150000000008     34.234549999999999     38.350650000000002
C      37.015250000000009     35.594849999999994     38.785750000000007
C      36.532250000000005     35.918549999999996     40.096249999999998
C      36.653950000000009     37.316249999999997     40.647350000000003
C      39.838450000000009     37.177750000000003     34.692750000000004
C      40.192950000000003     35.787649999999999     34.754050000000007
C      39.778649999999999     34.747749999999996     35.658150000000006
C      35.769550000000002     37.695650000000001     41.584849999999989
C      39.016250000000007     41.924650000000000     39.750450000000001
H      40.466650000000008     42.619550000000004     40.947350000000000
H      38.348250000000007     40.460250000000002     34.849649999999997
H      39.077950000000008     42.362449999999995     37.183250000000001
H      38.361950000000007     33.117949999999993     36.644149999999996
H      36.523950000000006     33.358850000000004     38.574849999999998
H      36.159650000000006     35.318749999999994     40.888049999999993
H      40.485150000000004     38.012649999999994     34.352249999999998
H      41.132450000000006     35.488950000000003     34.373849999999990
H      40.619850000000007     34.190550000000002     36.030250000000009
H      34.867549999999994     37.229050000000001     41.848950000000002
H      35.847950000000004     38.831850000000003     41.950249999999997
H      38.769750000000009     42.882050000000007     39.394149999999996
H      37.870150000000002     40.206750000000000     41.031349999999989
H      38.858950000000007     34.038650000000004     34.049750000000003
O      39.894250000000007     41.907550000000001     40.695650000000001
O      39.409050000000008     33.469949999999997     34.626850000000005
