18

C      36.179554999999993     36.589249999999993     36.588499999999996
C      36.867384999999999     37.735949999999988     37.078699999999998
C      38.131114999999994     38.121150000000000     37.604899999999986
C      40.077244999999991     37.624349999999993     38.883600000000001
C      38.075814999999992     39.437249999999992     38.120299999999986
C      39.112474999999996     40.219949999999997     38.963099999999997
C      35.741225000000000     35.331050000000005     36.546599999999998
C      35.916944999999998     38.798349999999999     37.211100000000002
H      40.191114999999996     39.947749999999999     38.863000000000000
H      39.074194999999996     39.961050000000000     40.216700000000003
H      38.971674999999991     41.400549999999996     38.801899999999989
H      35.906434999999995     34.858949999999993     37.611199999999997
H      34.920144999999998     38.652449999999988     37.508799999999994
H      35.518164999999996     34.599450000000004     35.783299999999997
H      35.308644999999999     39.199150000000003     36.315200000000004
N      39.214494999999999     37.343350000000001     37.976699999999994
N      41.079855000000002     37.474249999999998     39.486999999999995
O      37.008935000000001     40.028149999999997     37.961799999999997
