35

C      38.434449999999998     38.938099999999991     37.793719999999993
C      39.340949999999999     38.470900000000000     38.793130000000005
C      35.186349999999997     35.076999999999998     38.612720000000010
C      36.024649999999994     34.640500000000003     39.673960000000008
C      37.185549999999999     38.214299999999994     37.480029999999999
C      38.772250000000000     37.234400000000008     39.368460000000013
C      35.855449999999998     36.048400000000001     37.719970000000004
C      37.288150000000009     35.063100000000006     39.990500000000011
C      36.894650000000006     36.858000000000004     38.145179999999996
C      37.756149999999998     36.198299999999989     39.174660000000003
C      39.021149999999999     39.627600000000001     36.572490000000002
C      40.254149999999996     40.356399999999994     36.839530000000011
C      41.112749999999998     39.884799999999998     37.832330000000013
C      40.725349999999999     38.909500000000008     38.931160000000006
C      36.924550000000004     38.591499999999996     36.100560999999999
C      38.000549999999997     39.479500000000002     35.666435000000007
C      33.792549999999999     34.504800000000003     38.504460000000009
C      42.189749999999997     40.893299999999996     38.412250000000000
C      41.115050000000004     39.368699999999990     40.113069999999993
C      41.822949999999999     40.672600000000003     39.927670000000006
H      37.942150000000005     39.885199999999998     34.731539999999995
H      35.738250000000001     34.057500000000005     40.518830000000008
H      39.194850000000002     36.780299999999997     40.223780000000005
H      35.340049999999998     36.404499999999999     36.540690000000012
H      37.706550000000000     34.641000000000005     40.983760000000004
H      36.437850000000005     38.136099999999999     35.294840000000022
H      33.471950000000000     34.756200000000007     37.432470000000009
H      39.980350000000008     41.028999999999996     35.064839999999990
H      43.203949999999999     40.416899999999998     38.025840000000002
H      42.264849999999996     41.942499999999995     38.146779999999993
H      40.666449999999998     39.079499999999996     41.268460000000005
H      41.427550000000004     41.611199999999997     40.464930000000010
H      42.691749999999999     40.906500000000008     40.643410000000003
O      32.796050000000001     34.509500000000003     39.215970000000013
O      40.707849999999993     41.106099999999998     35.771523000000002
