6

C      38.156549999999996     37.743649999999988     38.770249999999997
C      37.965449999999990     38.239750000000001     37.499650000000003
H      38.371949999999998     36.739850000000004     38.841749999999998
H      37.628050000000002     38.451949999999997     39.387749999999997
H      38.083449999999999     37.536150000000006     36.612250000000003
H      37.797649999999990     39.260149999999996     37.230750000000000
