58

C      36.410699999999991     38.004950000000001     35.798489999999987
C      35.757899999999992     37.107450000000007     34.740669999999994
C      39.662599999999998     40.421850000000006     39.232789999999994
C      38.602499999999992     41.363050000000001     39.600589999999997
C      34.611800000000002     35.186950000000010     39.784890000000004
C      33.985299999999995     35.483750000000008     38.492689999999996
C      39.376599999999996     38.985250000000008     39.096289999999996
C      37.290300000000002     41.169249999999998     39.007490000000004
C      35.528599999999997     36.308550000000011     40.142889999999994
C      34.340599999999995     36.244250000000008     37.263090000000005
C      37.380700000000004     37.490550000000013     39.425889999999995
C      35.230000000000004     38.394750000000009     36.917389999999997
C      37.974400000000003     38.822150000000008     38.824389999999994
C      36.967900000000000     39.835850000000001     38.585189999999997
C      36.120499999999993     37.149350000000013     38.999989999999997
C      35.119399999999999     37.278650000000013     37.838289999999986
C      41.062299999999993     40.497149999999998     39.375489999999985
C      41.366000000000000     41.910050000000005     39.380489999999995
C      40.232799999999997     42.888550000000002     39.572890000000001
C      38.973900000000000     42.762949999999996     39.775890000000004
C      34.410399999999996     33.941350000000007     40.545990000000003
C      33.138000000000005     33.278450000000007     40.117089999999990
C      32.301900000000003     34.041950000000007     39.235090000000000
C      32.600700000000003     35.071450000000013     38.402289999999994
C      42.181200000000004     39.456350000000008     39.408389999999997
C      43.480400000000003     39.820650000000008     38.933089999999993
C      43.755700000000004     41.008050000000011     38.448890000000006
C      42.727400000000003     42.060750000000006     38.795190000000005
C      41.632199999999997     38.133350000000000     39.317390000000003
C      40.319999999999993     37.810050000000004     39.402889999999999
C      39.485900000000001     36.551550000000006     39.610889999999998
C      38.202600000000004     36.530850000000008     40.106489999999994
C      35.510400000000004     39.705550000000002     38.068089999999998
C      36.078800000000001     36.400350000000010     41.523390000000006
H      34.856799999999993     37.353950000000012     34.395610000000005
H      36.572599999999994     38.683749999999996     35.178439999999995
H      36.602599999999995     37.059450000000012     33.900509999999997
H      35.706599999999995     36.249250000000004     35.318060000000003
H      37.104699999999994     37.413250000000005     36.333889999999997
H      36.478700000000003     41.868850000000009     39.207490000000007
H      33.647399999999990     36.362850000000009     36.441389999999998
H      34.232399999999998     38.622750000000011     36.414890000000000
H      40.684899999999999     43.880150000000000     39.822590000000005
H      38.339600000000004     43.536150000000006     40.284589999999994
H      35.006999999999991     33.760050000000007     41.626990000000006
H      33.136600000000001     32.119850000000000     40.219089999999994
H      31.333400000000001     33.615950000000012     39.202990000000000
H      32.117400000000004     35.677350000000004     37.661990000000003
H      44.016800000000003     38.993050000000011     38.537589999999994
H      44.666600000000003     41.385250000000013     37.924490000000006
H      43.196500000000000     42.994350000000004     38.355289999999997
H      42.479900000000001     37.355850000000004     39.331889999999987
H      40.279600000000002     35.844550000000012     39.712090000000003
H      38.074399999999997     35.560150000000007     40.646490000000000
H      34.806500000000000     39.862950000000012     38.860489999999999
H      35.216700000000003     40.660550000000008     37.670789999999997
H      35.746600000000001     35.491650000000007     42.024090000000001
H      36.015599999999992     37.377550000000014     42.099490000000003
