91

C      34.614389999999993     41.376299999999993     37.383084999999994
C      34.213189999999997     41.058900000000001     36.038325000000000
C      33.924890000000005     34.195599999999999     37.441635000000005
C      34.672089999999997     40.152600000000000     38.222064999999986
C      34.108489999999996     39.686500000000002     35.475493999999998
C      33.667890000000000     35.149500000000003     38.541584999999998
C      34.857089999999999     37.602000000000004     38.421424999999999
C      33.955790000000000     37.172200000000004     35.699794999999995
C      34.659589999999994     38.830799999999996     37.637894999999986
C      34.152390000000004     38.526000000000003     36.291394999999994
C      34.227389999999993     36.394500000000001     37.928884999999994
C      34.072990000000004     36.078900000000004     36.493144999999998
C      35.079689999999999     42.600600000000000     37.984034999999992
C      34.996189999999991     43.921100000000003     37.224154999999996
C      34.539489999999994     43.678300000000000     35.791454999999999
C      34.153289999999998     42.361599999999996     35.383618999999996
C      36.038890000000002     42.318700000000000     39.196804999999998
C      36.435590000000005     43.587900000000005     39.811504999999997
C      35.938989999999997     44.726199999999992     39.148474999999991
C      35.147590000000001     45.089600000000004     37.998125000000002
C      36.391389999999994     41.059400000000004     39.784944999999993
C      35.550489999999996     39.993000000000002     39.368974999999992
C      35.175490000000003     38.919899999999991     40.446605000000005
C      35.365590000000005     37.771699999999996     39.791695000000004
C      34.712190000000007     44.765499999999996     34.838510999999997
C      34.152690000000007     44.681799999999996     33.458884999999995
C      33.893690000000007     43.373600000000003     33.139584999999997
C      34.045690000000000     42.194099999999992     34.032884999999993
C      33.564589999999995     39.689300000000003     34.064684999999997
C      33.936290000000000     40.846699999999998     33.374384999999990
C      35.812089999999998     36.586100000000002     40.568814999999987
C      32.910630000000005     35.035800000000002     39.839195000000004
C      33.537289999999999     32.906400000000005     37.935455000000005
C      32.287240000000004     38.959199999999996     33.513685000000009
C      35.819290000000002     35.920200000000001     41.850924999999989
C      35.054889999999993     39.008700000000005     41.675834999999992
C      40.493089999999995     35.067000000000000     40.057434999999998
C      39.603189999999998     36.121899999999997     40.736215000000001
C      38.167689999999993     32.069900000000004     42.687465000000003
C      40.402190000000004     33.696100000000001     40.411474999999996
C      38.733189999999993     35.576499999999996     41.818474999999992
C      39.398989999999998     31.878900000000002     41.868634999999998
C      37.754090000000005     33.421199999999999     42.848465000000004
C      39.606890000000000     33.248100000000001     41.534994999999995
C      38.691689999999994     34.260899999999999     42.059394999999995
C      41.575689999999994     35.285000000000004     39.074555000000004
C      41.584789999999998     36.546900000000001     38.730194999999995
C      40.662390000000002     37.587800000000001     39.177175000000005
C      39.452190000000002     37.142200000000003     39.890185000000002
C      43.597790000000003     34.404400000000003     38.122564999999994
C      42.716490000000007     37.160499999999999     37.859164999999990
C      40.150790000000001     30.738000000000000     41.330595000000002
C      37.501490000000004     36.249700000000004     42.425584999999998
H      44.389189999999992     35.575800000000001     36.995844999999989
H      33.848990000000001     37.097100000000005     34.740812999999989
H      36.763190000000002     43.644400000000005     40.880904999999998
H      36.009690000000006     45.900799999999997     39.487934999999993
H      35.143790000000003     46.127600000000001     37.548625000000001
H      37.078189999999999     41.067700000000002     40.758254999999991
H      34.359090000000002     45.599499999999992     35.281078999999991
H      34.158590000000004     45.618600000000001     32.890585000000002
H      33.184790000000007     43.192300000000003     32.289884999999998
H      31.331209999999999     39.425100000000000     33.321585000000013
H      33.588890000000006     41.110700000000001     32.203485000000001
H      33.682190000000006     34.802900000000001     40.644395000000003
H      32.632060000000003     36.130000000000003     40.063684999999992
H      36.322190000000006     35.940399999999997     39.808335000000000
H      33.224290000000003     31.973399999999998     37.224514999999997
H      33.969190000000005     32.591400000000000     38.840495000000004
H      32.447320000000005     37.827199999999998     33.924884999999989
H      32.582300000000004     38.853300000000004     32.311084999999991
H      35.614990000000006     34.838500000000003     41.687004999999999
H      32.454960000000000     33.997399999999999     40.020595000000000
H      35.553590000000000     39.862200000000001     42.273414999999986
H      34.522990000000000     38.573399999999999     42.488514999999992
H      35.290490000000005     36.622500000000002     42.652445000000000
H      42.781189999999995     36.520900000000005     36.724575000000002
H      38.102089999999997     31.198499999999999     43.469345000000004
H      40.828889999999994     32.905200000000001     39.655094999999989
H      37.618989999999997     33.872399999999999     43.796514999999999
H      40.735489999999999     38.517199999999995     39.034564999999986
H      38.876489999999997     38.011400000000002     40.055255000000002
H      43.591290000000001     36.754400000000004     38.117834999999985
H      40.640790000000003     30.672400000000003     40.394924999999986
H      37.771789999999996     37.391900000000000     42.583055000000002
H      37.393889999999999     35.854199999999999     43.430044999999993
H      42.524190000000004     38.035499999999999     37.696044999999998
N      34.159790000000001     34.753300000000003     36.266795000000002
N      42.600389999999997     34.319200000000002     38.773434999999992
N      44.668790000000001     34.714600000000004     37.345214999999996
O      40.178089999999997     29.872399999999995     42.192684999999997
