53

C      38.025649999999992     38.579699999999995     38.244799999999998
C      36.737349999999992     39.195200000000000     38.226900000000001
C      36.841949999999997     39.124800000000000     42.664100000000005
C      38.704049999999995     38.825699999999998     39.628999999999998
C      36.076650000000001     39.820300000000003     39.327100000000002
C      38.100349999999999     38.790500000000002     42.239400000000003
C      38.026349999999994     39.122000000000000     40.815199999999997
C      36.594149999999999     39.562100000000001     40.604099999999995
C      38.579850000000000     37.971200000000003     37.097000000000001
C      37.848449999999993     37.784500000000001     35.874700000000004
C      36.623950000000001     38.247900000000001     36.000500000000002
C      35.879249999999999     39.033299999999997     37.005500000000005
C      40.022550000000003     37.653199999999998     37.189100000000003
C      40.370449999999998     36.607300000000002     36.370500000000007
C      39.716749999999990     36.316800000000001     35.113000000000007
C      38.360250000000001     36.891399999999990     34.782800000000002
C      40.812150000000003     37.785200000000003     38.610800000000005
C      40.058249999999994     38.436500000000002     39.733200000000004
C      35.740650000000002     38.078800000000001     34.850900000000003
C      34.322550000000000     38.627099999999999     34.836900000000007
C      33.791850000000004     39.547600000000003     35.778100000000002
C      34.671450000000000     39.790299999999995     36.918100000000003
C      37.382550000000002     36.683199999999999     33.780300000000004
C      36.098750000000003     37.359499999999997     33.764700000000005
C      34.280050000000003     40.754699999999993     37.931599999999996
C      34.994749999999996     40.862099999999991     39.175400000000003
C      41.609050000000003     35.875300000000003     36.750300000000003
C      42.276549999999993     35.093400000000003     35.793599999999998
C      41.690550000000002     35.103600000000000     34.482900000000008
C      40.420450000000002     35.616000000000000     34.004800000000003
C      40.788449999999997     38.404899999999998     40.749300000000005
C      41.749449999999996     36.147500000000001     40.446800000000003
C      41.631450000000001     36.465100000000000     39.083399999999997
C      42.000549999999990     35.582199999999993     38.089400000000005
C      41.345750000000002     37.143099999999997     41.279199999999996
H      36.273850000000003     39.127000000000002     43.707699999999996
H      33.923050000000003     38.271899999999995     33.867200000000004
H      33.126849999999997     40.439599999999999     35.440500000000007
H      35.573650000000001     36.913200000000003     33.051400000000008
H      33.360050000000001     41.354699999999994     37.720800000000004
H      34.776949999999992     41.727800000000002     39.897900000000000
H      42.873150000000003     34.272199999999998     36.175100000000008
H      42.429650000000002     34.665900000000001     33.697700000000005
H      40.008450000000003     35.589199999999998     33.058100000000003
H      41.302450000000000     39.241399999999999     41.050200000000004
H      41.729250000000000     38.482100000000003     38.010100000000001
H      42.633550000000000     34.730300000000000     38.321800000000003
H      38.949749999999995     38.332599999999999     42.647500000000008
H      36.910950000000000     35.421399999999991     32.292300000000004
H      42.290450000000000     35.192999999999998     40.768099999999997
H      41.418149999999997     37.189099999999996     42.284999999999997
N      35.997149999999998     39.583199999999998     41.789400000000001
O      37.589950000000002     35.599600000000002     33.020800000000001
