52

C      37.230499999999992     39.491650000000000     37.942749999999990
C      36.315700000000000     39.141250000000007     37.037050000000001
C      39.988299999999995     35.812950000000008     35.851250000000000
C      38.791300000000000     34.984750000000005     35.748950000000001
C      38.532899999999998     38.688350000000007     37.972849999999994
C      36.571300000000001     38.173350000000006     35.890250000000002
C      39.942400000000006     36.972150000000006     36.758949999999999
C      37.593899999999998     35.831750000000007     35.790649999999999
C      38.791000000000004     37.825850000000010     36.921149999999997
C      37.743499999999990     37.280850000000008     35.913249999999998
C      37.146000000000001     40.486550000000008     38.976750000000003
C      35.944299999999998     41.278950000000002     38.915149999999990
C      34.941800000000001     40.943750000000009     37.946549999999995
C      35.100400000000000     39.923250000000003     37.025150000000004
C      41.242000000000004     35.207350000000005     35.564750000000004
C      41.259200000000007     33.888150000000003     35.278250000000000
C      39.075199999999988     33.604150000000004     35.650250000000000
C      38.234999999999999     40.852650000000004     39.769849999999991
C      38.216799999999999     42.083250000000007     40.574849999999991
C      36.930900000000001     42.636049999999997     40.830049999999993
C      35.826799999999999     41.992350000000009     40.194850000000002
C      39.616000000000000     40.367450000000005     39.624749999999992
C      39.585599999999999     39.142450000000004     38.877850000000002
C      40.803699999999999     38.316150000000007     38.562649999999998
C      41.006899999999995     37.425750000000008     37.620549999999994
C      35.615099999999998     38.082050000000010     34.942149999999998
C      34.204300000000003     38.366250000000008     35.258850000000002
C      34.122500000000002     39.456950000000006     35.997049999999994
C      41.915400000000005     38.445250000000009     39.527949999999997
C      41.888700000000000     39.864049999999999     40.100049999999996
C      40.534999999999997     40.165050000000008     40.830750000000002
C      36.432200000000002     35.081650000000003     35.966050000000003
H      33.991599999999998     41.414149999999999     37.926450000000003
H      42.208799999999997     35.515850000000007     35.920150000000000
H      38.214899999999993     32.950850000000003     35.817749999999997
H      39.012200000000007     42.817349999999998     40.539650000000002
H      36.721299999999999     43.372750000000003     41.619250000000001
H      35.002000000000002     42.710050000000010     40.058750000000003
H      41.999200000000002     36.966750000000005     37.519350000000003
H      33.401100000000000     38.283850000000001     34.491549999999997
H      33.179700000000004     39.867049999999999     35.827050000000000
H      42.528800000000004     39.808250000000001     40.960749999999990
H      42.212400000000002     40.781050000000008     39.675150000000002
H      42.641499999999986     32.627249999999997     34.729849999999999
H      40.520899999999990     41.206650000000003     41.122950000000003
H      39.989599999999996     39.276150000000008     41.537350000000004
H      36.683399999999999     34.214250000000007     36.445950000000003
H      35.814599999999999     37.172550000000001     34.380749999999999
H      35.338200000000001     35.526150000000008     35.946950000000001
N      40.284299999999995     33.131250000000001     35.434049999999999
O      42.820299999999996     37.655549999999998     39.698349999999998
O      42.593500000000006     33.507350000000010     35.181150000000002
