67

C      40.497649999999993     38.610349999999997     40.181999999999995
C      39.659050000000001     37.413150000000002     40.355899999999991
C      32.695450000000001     36.187350000000009     36.540300000000002
C      40.049250000000001     39.710949999999997     39.361300000000000
C      33.929249999999996     37.093650000000011     36.097099999999998
C      38.429850000000002     37.425750000000008     39.736699999999992
C      35.022849999999991     39.449749999999995     35.991900000000001
C      36.203350000000000     40.195750000000004     36.256799999999998
C      34.799149999999997     38.165250000000000     36.625099999999996
C      38.838050000000003     39.677250000000001     38.601900000000001
C      36.926450000000003     39.993050000000011     37.496899999999997
C      35.529049999999998     37.785250000000005     37.839599999999997
C      37.885449999999999     38.574950000000001     39.005099999999999
C      36.658050000000003     38.828149999999994     38.248699999999999
C      41.581749999999992     38.574750000000009     41.145399999999995
C      41.917850000000001     37.269950000000009     41.688900000000004
C      41.282950000000000     35.987250000000003     41.683199999999999
C      40.087549999999993     36.153550000000010     40.891400000000004
C      34.607950000000002     39.272450000000006     34.609499999999997
C      34.942149999999998     40.170549999999992     33.682599999999994
C      36.099649999999997     40.977650000000011     34.033799999999999
C      36.413550000000001     41.283550000000005     35.197800000000001
C      42.321050000000000     39.804349999999999     41.498499999999993
C      43.525050000000000     39.507750000000001     42.322299999999998
C      43.668949999999995     38.315750000000008     43.087000000000003
C      42.838050000000003     37.198950000000011     42.839799999999997
C      42.643249999999995     42.192350000000005     40.326200000000000
C      42.004750000000001     41.282750000000007     41.360100000000003
C      39.308850000000000     34.893349999999998     40.931899999999999
C      37.698450000000001     34.798950000000005     41.244000000000000
C      34.514749999999999     36.482550000000003     34.996399999999994
C      33.428150000000002     36.132550000000009     34.083900000000000
C      32.226950000000002     35.985150000000004     34.913399999999996
C      37.217849999999991     33.923349999999999     40.041600000000003
C      36.884050000000002     41.215649999999997     32.751899999999999
H      35.931849999999997     35.810250000000011     33.967900000000000
H      33.041849999999997     35.386550000000000     37.089200000000005
H      34.540349999999997     36.026250000000005     38.166099999999993
H      38.176749999999998     36.364350000000002     39.630099999999999
H      32.071449999999999     36.959150000000008     37.056099999999994
H      43.531550000000003     42.044750000000008     39.607600000000005
H      41.550449999999998     34.960750000000004     42.069199999999995
H      33.549549999999996     38.828149999999994     34.619599999999991
H      34.327249999999999     40.454650000000001     32.702100000000002
H      37.183549999999997     42.019350000000003     35.454799999999992
H      44.136449999999996     40.416650000000004     42.558800000000005
H      44.506149999999998     38.232550000000003     43.738399999999999
H      43.291449999999998     36.219250000000002     43.011700000000005
H      43.035849999999996     43.171949999999995     40.984399999999994
H      41.033450000000002     41.844950000000011     41.284099999999995
H      40.524349999999998     40.667950000000005     39.337199999999996
H      41.975349999999999     42.325350000000000     39.316099999999992
H      37.522149999999989     35.646150000000006     41.861899999999991
H      37.564850000000000     33.994950000000003     42.091600000000000
H      33.702249999999999     36.679749999999999     33.118800000000000
H      31.656049999999997     35.027550000000005     34.632599999999996
H      31.493850000000002     36.739850000000004     34.586799999999997
H      36.114849999999997     34.290450000000007     39.699299999999987
H      37.735950000000003     34.291049999999998     39.180599999999998
H      37.038249999999998     32.828050000000005     40.132800000000003
H      36.878950000000003     42.236249999999998     32.544199999999996
H      37.975149999999999     41.192550000000011     33.085999999999999
H      37.336449999999999     40.192550000000011     32.261600000000001
N      35.357849999999999     36.770250000000004     38.510199999999998
N      38.140250000000002     40.497650000000007     37.979500000000002
O      39.762450000000001     33.824150000000003     40.806500000000000
O      35.817850000000000     36.638950000000008     34.305899999999994
