59

C      39.602389999999993     39.436599999999999     40.300999999999995
C      36.539499999999997     38.311599999999999     33.720999999999997
C      38.410939999999997     38.816100000000006     40.038600000000002
C      35.746090000000002     37.981800000000007     34.869099999999989
C      40.233190000000000     39.810100000000006     38.945999999999998
C      37.684080000000002     39.050500000000000     34.010899999999999
C      37.576479999999997     39.040199999999999     38.777700000000003
C      36.136980000000001     38.703699999999998     36.085999999999999
C      40.125639999999990     40.592299999999994     36.484999999999999
C      39.531999999999996     40.425500000000000     35.249400000000001
C      39.566569999999999     39.953699999999998     37.674399999999999
C      38.230280000000000     39.696199999999990     35.305700000000002
C      38.229070000000000     39.434299999999993     37.675300000000000
C      37.489869999999989     39.200999999999993     36.396799999999992
C      36.222369999999998     38.574799999999996     38.743299999999991
C      35.780679999999990     38.098100000000002     37.414200000000001
C      40.114839999999994     39.089200000000005     41.585099999999997
C      39.522559999999999     38.413100000000000     42.655900000000003
C      38.145589999999999     38.151600000000002     42.560599999999994
C      37.564239999999998     38.312399999999997     41.260599999999997
C      36.081530000000001     38.607200000000006     41.136899999999990
C      35.455190000000002     38.586799999999997     39.945700000000002
C      36.179049999999997     37.838799999999992     32.212299999999999
C      35.614440000000002     36.598199999999991     32.418700000000001
C      34.508780000000002     36.224999999999994     33.507100000000001
C      34.710900000000002     36.994100000000003     34.852800000000002
C      34.166890000000002     36.695400000000006     36.052300000000002
C      34.669510000000002     37.190500000000000     37.273800000000001
C      34.154069999999997     35.540300000000002     39.496099999999998
C      34.085400000000000     36.584699999999998     38.578899999999997
C      41.550660000000001     39.756200000000007     39.258899999999990
C      42.010460000000002     40.057499999999990     40.716499999999989
C      41.284260000000003     39.849899999999991     41.945899999999995
C      37.507219999999997     37.402799999999999     43.753500000000003
C      35.001530000000002     38.580100000000002     42.230600000000003
C      38.537559999999999     39.164800000000000     32.650999999999996
H      34.490250000000003     38.311199999999999     39.823700000000002
H      34.465060000000001     35.149900000000002     33.566699999999997
H      40.907759999999996     41.402699999999996     36.777999999999999
H      40.169329999999995     40.640199999999993     34.369000000000000
H      40.031959999999998     38.225700000000003     43.654399999999995
H      36.810360000000003     38.104500000000002     31.185499999999998
H      36.070169999999997     35.595399999999998     32.082900000000002
H      33.630040000000001     36.750399999999999     32.907800000000002
H      33.516819999999996     35.754300000000001     36.027700000000003
H      33.345370000000003     35.303100000000001     40.207900000000002
H      35.266140000000000     37.666700000000006     42.720500000000001
H      34.824349999999995     34.597300000000004     39.334400000000002
H      32.969540000000002     36.972399999999993     38.607399999999998
H      42.082859999999997     39.761700000000005     38.349600000000002
H      43.030459999999998     40.052700000000002     40.252699999999997
H      41.660959999999996     40.131299999999996     42.852199999999996
H      36.449039999999997     37.451899999999995     43.720700000000001
H      35.092869999999991     39.172100000000000     43.335499999999996
H      33.845920000000000     38.560000000000002     41.749899999999990
H      39.575540000000004     38.858400000000003     32.656300000000002
H      38.065469999999998     38.928500000000000     31.681599999999996
H      38.696680000000001     40.271799999999999     32.329500000000003
O      38.100679999999997     37.311400000000006     44.814500000000002
