5

C      37.971499999999992     38.005600000000001     37.947824999999995
H      37.071600000000004     37.338000000000001     37.889605000000003
H      37.639099999999999     38.319100000000006     38.966684999999998
H      37.941000000000003     38.661999999999999     37.033315000000002
H      38.928399999999996     37.422100000000007     38.133135000000003
