49

C      38.844245000000001     38.107149999999990     39.610799999999998
C      37.623525000000001     37.491049999999994     39.292800000000000
C      40.208444999999998     37.635749999999994     34.809799999999996
C      39.028945000000007     36.827449999999992     34.269900000000007
C      39.668144999999996     38.195949999999989     38.397999999999996
C      37.393924999999996     37.003650000000000     37.904700000000005
C      40.474244999999996     38.197749999999992     36.000799999999998
C      38.117445000000004     36.618449999999996     35.381299999999996
C      39.526845000000009     37.819649999999996     37.024400000000000
C      38.341645000000000     36.942249999999994     36.720500000000001
C      39.151844999999994     38.307749999999992     40.999499999999998
C      38.303745000000006     37.834550000000000     42.086999999999989
C      37.024054999999990     37.656949999999995     41.654600000000002
C      36.549064999999999     37.517149999999994     40.308700000000002
C      41.315545000000000     37.756049999999995     33.746800000000007
C      41.214244999999991     36.832449999999994     32.708600000000004
C      40.144745000000000     35.998950000000001     32.315899999999999
C      38.927644999999998     36.053449999999984     33.102300000000000
C      40.559145000000001     38.538049999999991     41.280600000000007
C      40.972045000000008     38.492249999999991     42.617599999999996
C      40.185744999999997     38.348249999999993     43.799300000000002
C      38.750344999999996     37.822249999999997     43.648300000000006
C      41.393744999999996     39.217049999999993     40.052099999999996
C      40.858845000000002     39.030349999999991     38.732799999999997
C      41.549745000000001     39.717649999999999     37.635400000000004
C      41.534945000000008     39.219749999999991     36.263400000000004
C      42.269345000000001     38.882649999999984     33.834800000000001
C      42.182845000000000     39.707850000000001     35.065300000000008
C      35.998585000000006     37.052749999999996     37.587599999999995
C      34.940354999999997     37.117149999999995     38.556700000000006
C      35.080205000000007     37.619349999999990     39.974499999999992
C      33.611384999999999     36.757249999999992     37.744699999999995
H      37.127245000000002     36.299249999999994     35.182299999999998
H      36.439575000000005     37.703849999999996     42.465000000000003
H      41.951944999999995     36.913750000000000     31.912299999999998
H      40.214645000000004     35.371350000000000     31.358300000000003
H      37.829895000000008     35.869249999999994     32.885399999999997
H      41.976145000000002     38.704949999999997     42.682900000000004
H      40.611845000000002     38.179249999999996     44.641700000000000
H      37.907544999999999     37.609049999999996     44.379400000000004
H      42.283045000000001     40.572649999999989     37.728800000000007
H      43.254644999999996     38.832949999999990     33.340999999999994
H      42.900545000000008     40.628650000000000     34.939099999999996
H      35.753034999999997     36.938449999999996     36.480999999999995
H      34.497275000000002     36.812749999999987     40.648600000000002
H      34.650165000000001     38.614549999999987     40.238199999999992
H      32.745355000000004     35.947649999999996     38.270699999999991
O      33.467015000000004     37.024049999999995     36.600200000000001
O      42.457144999999997     39.564249999999987     40.148700000000005
