6

C      38.571599999999989     37.984999999999992     38.331199999999995
C      37.359400000000008     38.032100000000000     37.649000000000001
H      38.958599999999990     36.995800000000003     38.769800000000004
H      36.756799999999998     37.009700000000002     37.644199999999998
H      36.879300000000001     39.004199999999997     37.230199999999996
H      39.243200000000002     38.739500000000000     38.096599999999995
