6

C      38.590699999999991     38.483649999999983     37.884699999999995
C      37.710000000000001     37.583550000000002     38.388699999999993
H      39.134200000000000     37.868150000000000     37.156100000000002
H      38.609899999999989     39.518649999999994     38.120199999999997
H      36.865800000000000     37.909949999999995     38.843899999999998
H      37.805099999999996     36.481350000000006     38.200200000000002
