5

C      37.749049999999990     37.924650000000000     38.117400000000004
H      37.413849999999989     38.874849999999995     38.550400000000010
H      38.749650000000003     37.944850000000002     38.105100000000007
H      37.250349999999997     37.640250000000009     37.100999999999999
H      37.483649999999997     37.125150000000005     38.899000000000001
