53

C      37.702049999999993     38.526600000000002     38.530399999999993
C      38.474049999999991     37.636300000000006     37.724699999999999
C      39.161349999999992     42.328699999999998     35.742899999999992
C      37.431849999999997     39.819599999999994     37.893799999999999
C      39.285249999999991     38.025500000000008     36.504899999999999
C      38.482650000000000     41.831500000000005     36.756999999999998
C      38.249350000000000     40.300899999999999     36.804599999999994
C      39.089550000000003     39.397999999999996     36.166499999999999
C      37.319350000000000     37.993000000000009     39.815600000000003
C      37.952050000000000     36.713000000000008     40.269700000000000
C      39.105649999999990     36.109600000000000     39.778500000000001
C      39.071649999999998     36.440600000000003     38.322800000000001
C      36.507149999999989     38.900900000000007     40.629600000000003
C      36.168050000000001     38.421500000000009     41.948900000000002
C      36.389550000000000     36.999499999999998     42.106999999999992
C      37.388950000000001     36.180199999999999     41.499599999999994
C      36.139949999999999     40.057000000000002     39.987899999999996
C      36.696550000000002     40.780999999999992     38.758299999999998
C      40.210949999999997     35.473599999999990     40.206499999999998
C      40.987549999999999     34.742300000000000     39.404899999999998
C      40.990949999999998     34.915999999999997     38.009399999999999
C      39.989249999999991     35.803300000000007     37.457200000000000
C      39.674949999999995     37.223799999999997     35.436199999999999
C      39.950849999999996     35.792699999999996     35.891500000000001
C      38.956850000000003     34.663399999999996     35.231299999999997
C      38.830550000000002     34.531300000000002     33.731900000000003
C      37.526849999999996     34.727199999999996     41.970300000000002
C      35.074249999999999     40.845399999999998     40.832200000000000
C      36.167349999999999     34.116299999999995     42.474299999999992
H      39.238950000000003     42.622700000000009     33.817099999999996
H      38.818950000000001     41.926299999999998     37.835700000000003
H      39.732950000000002     39.590199999999996     35.338999999999999
H      35.761849999999995     39.002499999999998     42.743099999999998
H      35.735250000000001     36.506599999999992     42.981400000000001
H      36.363749999999996     41.821899999999999     38.797399999999996
H      40.330050000000000     35.311999999999998     41.250000000000000
H      41.523449999999997     33.891400000000004     39.670699999999997
H      38.053049999999999     34.604100000000003     35.873299999999993
H      39.716949999999997     37.632599999999996     34.315800000000003
H      37.821749999999994     34.448800000000006     33.270899999999997
H      39.523049999999991     33.971600000000009     32.995500000000000
H      41.839050000000000     34.028900000000007     36.677899999999994
H      40.772849999999998     35.793599999999998     35.217199999999998
H      38.064149999999998     34.756500000000003     42.962599999999995
H      37.785149999999994     34.142300000000006     41.100799999999992
H      34.985950000000003     40.897099999999995     41.922400000000003
H      34.160950000000000     40.328299999999999     40.756200000000000
H      34.906450000000000     41.898499999999999     40.214900000000000
H      36.612250000000003     33.226100000000002     42.994300000000003
H      35.870950000000001     34.319900000000004     41.462699999999998
H      35.687649999999991     34.890500000000003     43.004500000000000
N      39.649149999999992     42.773899999999998     34.701100000000004
O      41.368650000000002     33.653700000000001     37.445900000000002
