6

C      38.607699999999994     38.220199999999998     37.977049999999991
C      37.403800000000004     37.672800000000009     38.045749999999998
H      36.831199999999995     37.834699999999998     38.931649999999991
H      38.937699999999992     39.057399999999994     38.795250000000010
H      39.168800000000005     37.745000000000005     37.068350000000009
H      37.153100000000009     36.942600000000006     37.259250000000009
