6

C      38.407415000000000     37.905900000000003     38.447949999999992
C      37.109215000000006     38.274000000000001     37.964349999999996
H      39.504584999999992     38.472700000000003     38.612049999999996
H      38.817205000000001     36.726799999999997     38.522549999999995
H      36.519674999999992     39.273200000000003     38.390749999999997
H      36.495415000000008     37.595100000000002     37.387950000000004
