5

C      38.108599999999996     37.872199999999992     38.067999999999998
H      38.030699999999996     37.586199999999991     37.038899999999998
H      37.125100000000003     38.182299999999998     38.314099999999996
H      38.864599999999996     38.514299999999992     37.493499999999997
H      38.874899999999997     37.485700000000008     38.961100000000002
