6

C      38.452050000000000     37.488099999999996     38.048399999999987
C      37.517249999999990     38.472200000000001     38.034199999999998
H      39.452550000000002     37.574600000000004     37.457599999999999
H      37.666950000000000     36.670800000000000     38.542400000000001
H      36.547449999999998     38.352699999999999     37.918000000000006
H      38.038550000000001     39.329200000000000     37.892300000000006
