39

C      40.770274999999998     39.253149999999998     41.655600000000000
C      38.377508999999996     38.384250000000009     38.341200000000001
C      39.384695000000008     38.259450000000001     37.296100000000003
C      35.633575000000008     39.710650000000001     34.642499999999998
C      37.164874999999995     39.028450000000007     37.952700000000007
C      38.834064999999995     38.402850000000001     35.924700000000001
C      35.434975000000016     39.979150000000004     36.119899999999994
C      36.850374999999993     39.194749999999999     34.366900000000001
C      36.628875000000008     39.377350000000000     36.740000000000002
C      37.604975000000003     39.045650000000002     35.602899999999998
C      39.104875000000007     38.284750000000003     39.645300000000006
C      40.331385000000004     37.708649999999999     39.883099999999992
C      41.069665000000008     37.149550000000005     38.736500000000007
C      40.649615000000004     37.462050000000005     37.364000000000004
C      40.430825000000006     37.697850000000003     41.469499999999996
C      41.614585000000005     37.477150000000002     36.313100000000006
C      41.955325000000002     37.118450000000003     34.736199999999997
C      41.458805000000005     35.670850000000002     34.521400000000000
C      34.395274999999998     40.657350000000008     36.749800000000008
H      42.262204999999994     37.576250000000002     41.231399999999994
H      41.484425000000002     39.439650000000000     42.621499999999997
H      41.280425000000001     39.571750000000009     40.790000000000006
H      39.902645000000007     39.987549999999992     41.674500000000002
H      34.841174999999993     39.878750000000004     33.824800000000003
H      36.584775000000015     39.118750000000006     38.982899999999994
H      39.325305000000007     38.100350000000006     34.933900000000001
H      37.204475000000002     38.851250000000007     33.378500000000003
H      38.587682000000001     38.548849999999995     40.586400000000005
H      42.037375000000004     36.933450000000008     38.970300000000002
H      39.547235000000008     37.275350000000003     41.928400000000003
H      41.280764999999995     37.594149999999999     34.058300000000003
H      42.667615000000005     37.928250000000006     34.504000000000005
H      42.517804999999996     35.147350000000003     34.592400000000005
H      40.884865000000005     35.150750000000002     35.318800000000003
H      41.006004999999995     35.507750000000001     33.605199999999996
H      33.282274999999998     40.788950000000000     36.350900000000003
H      34.387274999999988     40.852649999999997     37.790800000000004
O      41.661035000000005     36.962250000000004     41.670600000000000
O      42.717725000000002     37.670450000000002     36.761000000000003
