5

C      37.833699999999993     37.685742499999996     37.978399999999993
H      38.242899999999999     38.754982499999997     37.764399999999995
H      37.882699999999993     37.245017500000003     38.959600000000002
H      37.157100000000000     37.621745500000003     37.040399999999998
H      38.842900000000000     37.317888500000002     37.716499999999996
