6

C      38.097600000000000     38.137899999999995     38.389449999999989
H      38.769800000000004     37.523499999999999     36.566850000000002
H      38.302499999999995     37.540700000000001     39.433149999999998
H      37.159700000000001     38.332200000000000     37.871849999999988
H      38.840299999999999     39.016199999999998     37.933149999999998
O      38.415700000000001     36.983800000000002     37.407049999999998
