6

C      38.158249999999988     37.653599999999997     38.581949999999992
C      37.258849999999995     37.930599999999998     37.532849999999996
H      39.133749999999999     36.983800000000002     38.451849999999993
H      38.582149999999999     38.680299999999995     39.139650000000003
H      36.952849999999991     37.295800000000000     36.860349999999997
H      36.866250000000001     39.016199999999998     37.382649999999998
