5

C      38.264799999999994     38.160699999999991     37.652699999999996
H      38.348500000000001     38.127899999999997     38.722700000000003
H      38.433300000000003     37.139499999999998     37.345799999999997
H      38.927499999999995     38.860500000000002     37.277299999999997
H      37.072500000000005     38.551900000000003     37.558799999999991
