5

C      37.888074000000003     37.708599999999990     37.735499999999988
H      37.073946000000007     37.169899999999991     37.033300000000004
H      37.651534000000012     37.746800000000000     38.966699999999996
H      38.926053999999993     37.145400000000002     37.383900000000004
H      37.804934000000003     38.854599999999998     37.500399999999992
