5

C      37.955849999999998     38.064349999999990     38.177599999999998
H      38.160749999999993     38.779150000000001     37.309800000000003
H      38.892150000000001     37.649950000000004     38.482800000000005
H      37.486950000000007     37.220849999999999     37.558799999999998
H      37.107849999999999     38.532449999999997     38.690199999999997
