5

C      38.152749999999997     38.034149999999997     37.861284999999995
H      37.139949999999999     37.364650000000005     37.672854999999998
H      38.199950000000001     38.740349999999999     37.185945000000004
H      38.860050000000001     37.259650000000001     37.909295000000000
H      38.845050000000001     38.165149999999997     38.814054999999996
