15

C      37.900999999999996     36.796749999999996     36.263900000000000
C      38.925799999999995     37.314250000000001     36.918000000000006
C      38.723599999999990     37.724950000000000     38.290500000000009
C      37.500399999999999     37.348249999999993     38.835599999999999
C      36.502499999999998     37.061050000000002     37.906500000000008
C      39.682000000000002     38.770850000000003     38.841800000000006
H      35.408100000000005     36.936749999999989     38.260500000000008
H      38.356499999999997     36.253650000000000     35.343300000000006
H      38.085899999999995     37.088250000000002     40.656699999999994
H      40.406599999999997     38.001950000000001     35.726300000000009
H      40.591899999999995     39.091450000000002     38.277700000000003
N      36.581400000000002     36.672849999999997     36.652800000000006
O      39.330700000000007     39.746350000000000     39.482500000000002
O      37.282599999999988     37.156949999999995     40.138300000000001
O      40.273299999999992     37.380350000000000     36.562100000000008
