6

C      38.097349999999992     38.203050000000005     37.335399999999993
C      37.857250000000001     37.730649999999997     38.657299999999992
H      37.881850000000000     39.246549999999999     37.014699999999991
H      38.502249999999997     37.495249999999999     36.624099999999999
H      37.994250000000001     36.753450000000001     38.934299999999993
H      37.497750000000003     38.366749999999996     39.375900000000001
