55

C      37.576839999999990     38.150787999999991     37.447350000000000
C      38.597409999999996     38.903668000000003     38.132050000000007
C      34.872489999999999     42.148497999999996     35.995350000000002
C      36.297740000000005     38.785107999999994     36.870450000000005
C      38.237600000000000     40.247177999999991     38.109749999999998
C      34.927410000000009     40.739297999999991     36.058150000000005
C      36.217709999999997     40.179887999999991     36.731350000000006
C      37.161900000000003     40.917577999999992     37.445050000000002
C      37.216400000000007     36.799697999999999     37.910150000000002
C      37.987520000000004     36.091438000000004     38.872949999999996
C      39.290259999999989     36.693207999999998     39.356050000000003
C      39.565919999999991     38.081527999999992     38.839450000000006
C      36.123959999999997     35.916567999999991     37.222050000000003
C      36.046419999999998     34.577247999999997     37.828749999999999
C      37.429969999999997     34.988807999999999     39.572149999999993
C      35.531189999999995     36.475057999999997     36.065450000000006
C      35.484490000000008     37.929028000000002     36.058950000000003
C      40.222149999999999     36.301898000000001     40.177950000000003
C      41.612499999999997     38.130837999999997     40.089349999999996
C      40.723489999999998     38.845407999999999     39.267350000000000
C      38.194400000000002     34.658687999999998     40.743150000000007
C      39.674059999999997     35.285918000000002     41.097349999999999
C      39.437629999999999     40.971947999999998     38.907650000000004
C      40.858219999999989     40.273347999999999     38.693849999999998
C      34.285004000000001     39.873117999999998     35.070450000000001
C      35.360770000000002     33.629778000000002     36.856550000000006
C      35.641449999999992     34.953907999999998     33.862150000000007
C      35.620900000000006     35.663778000000001     34.920250000000003
C      42.965580000000003     38.724318000000004     40.383749999999999
C      33.226050000000001     40.573518000000000     34.181850000000004
C      34.465230000000005     38.486778000000001     35.229950000000002
C      40.557550000000006     34.889028000000003     42.018350000000005
H      33.614288000000002     34.339688000000002     36.817550000000004
H      37.143400000000000     42.094878000000001     37.458550000000002
H      39.162149999999997     41.572507999999999     39.892049999999998
H      39.591889999999992     41.899087999999999     38.209550000000000
H      41.668430000000001     40.560267999999994     39.266949999999994
H      41.219499999999996     40.067318000000000     37.476549999999996
H      34.434610000000006     34.464797999999995     33.874849999999995
H      36.105649999999997     33.274836000000001     36.091550000000005
H      35.168700000000001     32.679372000000001     37.223450000000007
H      36.479060000000004     34.185307999999999     33.558750000000003
H      42.930279999999996     38.389887999999999     41.501850000000005
H      33.158050000000003     39.829957999999991     33.387949999999996
H      32.341349999999991     41.090248000000003     34.790850000000006
H      33.767842000000002     41.610528000000002     33.759250000000002
H      33.774927000000005     37.750208000000001     34.554549999999999
H      41.574900000000000     35.107368000000001     42.220150000000004
H      40.383110000000002     34.001317999999998     42.612050000000004
N      34.907519999999991     43.320627999999999     35.865650000000002
N      36.534340000000000     34.150947999999993     38.962850000000003
N      41.282160000000005     36.972817999999997     40.462650000000004
O      34.253713000000005     34.144558000000004     36.209750000000000
O      43.658650000000009     39.403117999999992     39.622650000000007
O      37.901020000000003     34.103748000000003     41.734449999999995
