6

C      38.719499999999996     37.591445000000000     38.017799999999994
H      38.841200000000001     36.953215000000007     38.898499999999999
H      39.063299999999998     36.839005000000000     37.144599999999997
H      39.146600000000007     38.671105000000004     37.710200000000000
H      37.164699999999996     39.160995000000000     37.101500000000001
S      36.853399999999993     37.857665000000004     37.787699999999987
