50

C      38.776499999999999     38.951200000000000     37.900300000000001
C      39.305999999999997     40.099000000000011     37.207300000000018
C      34.491299999999995     40.426700000000004     37.413700000000020
C      37.443500000000000     38.610300000000002     38.277299999999997
C      38.302499999999995     41.185800000000000     36.990800000000007
C      35.132099999999994     39.140100000000004     37.499300000000005
C      35.423199999999994     41.457100000000004     36.948200000000014
C      36.609999999999999     39.413000000000004     37.452900000000014
C      36.933800000000005     40.782000000000004     37.171500000000009
C      39.588300000000004     37.644500000000001     37.717400000000012
C      40.874800000000008     37.839900000000007     37.084700000000012
C      40.622299999999996     40.099400000000010     36.551500000000019
C      39.230199999999996     36.524100000000004     38.432699999999997
C      40.232600000000005     35.527200000000001     38.769000000000020
C      41.444599999999994     35.959000000000010     38.193000000000012
C      37.867000000000004     36.404200000000003     39.120500000000007
C      36.935500000000005     37.377400000000002     38.794800000000009
C      35.487899999999996     36.937500000000007     38.772400000000019
C      34.673900000000003     37.952500000000008     38.199700000000007
C      40.317300000000003     34.337400000000009     39.703700000000012
C      40.046700000000001     32.983800000000009     38.957300000000004
C      36.977300000000000     35.190900000000006     39.414500000000018
C      35.056300000000007     42.833500000000008     36.882100000000008
C      36.400900000000007     43.648500000000006     36.698400000000021
C      33.291100000000000     37.409900000000007     37.822000000000017
C      35.657399999999996     35.554400000000008     39.217500000000001
C      42.480800000000002     34.969600000000007     38.637900000000002
H      33.346500000000006     40.671199999999999     37.534400000000019
H      38.449200000000005     42.273700000000005     36.748800000000017
H      38.882099999999994     32.621800000000007     39.189800000000020
H      39.935199999999995     32.756100000000004     37.829200000000014
H      37.335300000000004     34.037400000000005     39.472500000000011
H      40.821200000000005     41.142800000000001     35.159000000000006
H      34.045500000000004     43.206699999999998     36.909100000000009
H      37.151699999999991     43.209500000000006     35.999700000000004
H      36.628799999999998     43.971199999999996     37.807000000000016
H      36.316800000000001     44.730499999999999     36.440300000000008
H      32.531900000000007     37.337100000000007     38.652300000000011
H      32.891500000000008     37.806300000000007     36.826200000000014
H      33.395799999999994     36.272900000000007     37.618700000000018
H      34.774100000000004     34.936600000000006     39.454600000000013
H      42.739699999999999     34.240100000000005     37.835500000000010
H      43.468099999999993     35.304300000000005     39.220500000000015
H      42.069199999999995     34.254700000000000     39.392700000000019
H      40.091400000000007     31.269500000000001     39.850300000000018
N      41.192099999999996     38.925500000000000     36.446399999999997
N      41.647900000000007     36.813000000000009     37.230400000000017
O      40.178700000000006     34.719200000000008     40.840999999999994
O      40.649699999999996     31.863200000000003     39.564700000000016
O      41.241599999999991     41.256400000000006     36.047299999999993
