6

C      38.059650000000005     38.529249999999998     38.486400000000003
C      38.012750000000011     37.370050000000006     37.787200000000013
H      37.139050000000012     39.198650000000001     38.268200000000007
H      38.804550000000006     39.024850000000001     38.890000000000001
H      38.944749999999999     36.801349999999999     37.639800000000008
H      37.055250000000001     37.247250000000008     37.109999999999999
