6

C      38.360450000000000     38.448699999999995     38.205714999999991
C      37.519250000000000     37.528199999999998     37.615794999999999
H      39.654150000000001     38.497599999999998     38.058464999999998
H      37.998750000000001     39.123100000000001     39.133195000000001
H      37.881550000000004     36.876899999999999     36.866804999999999
H      36.345849999999999     37.494399999999999     37.836604999999999
