56

C      37.003765000000001     36.851199999999992     37.812963499999981
C      37.929064999999994     37.895000000000010     38.329763499999991
C      34.424868000000004     40.138099999999994     35.446563499999989
C      35.788815000000000     40.632700000000000     35.144863499999992
C      35.726515000000006     37.115600000000001     37.287563499999997
C      37.989075000000000     39.053700000000006     37.555763499999991
C      34.302495700000009     39.002700000000004     36.258763499999993
C      37.021344999999997     40.305800000000005     35.648963500000001
C      35.606125000000006     38.445400000000006     36.742063499999993
C      36.868774999999999     39.184399999999997     36.504263499999993
C      37.288094999999998     35.564099999999996     38.498663499999999
C      38.300125000000008     35.254400000000004     39.463263499999989
C      38.917005000000003     36.417299999999997     39.956463499999984
C      38.606735000000000     37.646700000000010     39.555363499999991
C      33.330615000000023     40.417200000000008     34.581463499999991
C      33.556314999999998     41.640000000000001     33.743363499999994
C      34.690774000000005     42.331799999999987     33.754363499999990
C      35.863515000000007     41.801200000000009     34.286363500000000
C      36.240665000000007     34.639200000000002     37.989563499999996
C      36.714855000000000     33.337100000000007     38.482063499999988
C      38.518465000000006     33.799199999999999     39.777363499999993
C      34.613846000000009     36.143299999999996     37.350463499999996
C      34.943392000000003     34.788600000000002     37.467363499999998
C      38.456015000000008     40.255200000000002     37.909763499999990
C      38.934624999999997     41.326700000000002     38.362763499999986
C      39.411545000000004     38.672899999999998     40.463463499999996
C      38.807895000000002     38.794300000000007     41.769263499999987
C      39.155315000000002     40.067900000000009     42.457676499999998
C      40.354394999999997     40.761499999999998     42.319163499999995
C      38.480665000000002     42.936100000000010     38.098763499999997
C      42.762585000000001     40.334499999999991     41.459263499999999
C      41.494074999999995     40.108100000000007     41.561663499999987
H      37.964474999999993     40.938200000000009     35.526863499999997
H      39.530785000000009     36.160300000000007     40.807963499999993
H      32.329414999999997     39.925899999999999     34.703763500000001
H      32.655915000000022     41.953000000000003     32.884763499999991
H      34.884555000000006     43.001500000000007     32.905263499999997
H      36.127785000000003     32.404100000000000     38.009863499999987
H      39.484975000000006     33.407800000000009     40.566363499999980
H      33.557315000000003     36.521000000000001     37.102663499999998
H      34.173515000000009     33.963000000000008     37.628563499999991
H      40.034215000000003     40.782300000000006     38.565163499999983
H      38.029775000000001     42.845200000000006     37.195163500000000
H      40.105975000000001     39.546100000000010     39.990163499999987
H      33.544415000000001     38.521599999999992     36.788763499999995
H      38.428785000000005     40.680500000000009     43.043111500000002
H      38.348065000000005     38.178600000000003     42.416263499999992
H      37.114654999999999     42.506400000000014     32.693463500000000
H      40.263165000000001     41.441100000000006     43.306536500000000
H      37.697424999999996     42.990000000000009     38.757763499999982
H      39.322464999999994     43.595900000000000     38.096063499999985
H      43.670585000000003     39.753900000000002     41.173263499999997
H      43.356044999999995     41.131700000000009     41.986763499999988
H      41.325704999999999     39.277700000000010     40.927063499999996
N      37.674075000000002     33.046199999999999     39.343263499999999
S      37.532444999999996     42.093999999999994     33.668663499999987
