6

C      38.449749999999995     38.356299999999997     38.201299999999996
C      37.531350000000003     37.814300000000003     37.376400000000004
H      37.617750000000001     36.769700000000000     37.084000000000003
H      39.431650000000005     37.946199999999997     38.485999999999990
H      36.568349999999995     38.052599999999998     37.494100000000003
H      37.917550000000006     39.230300000000000     38.915999999999997
