5

C      38.352149999999995     37.552250000000001     38.349299999999999
C      37.954850000000000     38.382949999999994     37.445599999999999
H      38.896749999999997     38.910049999999998     36.828500000000005
H      37.017949999999999     38.367949999999993     36.877399999999994
H      38.982050000000001     37.089950000000002     39.171499999999995
