34

C      37.818249999999992     34.568424999999991     39.486049999999999
C      38.088949999999997     34.287725000000009     38.144949999999994
C      38.315049999999999     41.680905000000024     33.711649999999999
C      38.249949999999998     40.955255000000008     35.000650000000000
C      37.719650000000001     36.037825000000012     39.712149999999994
C      38.192749999999990     35.173024999999996     36.849849999999996
C      37.544150000000002     40.593255000000013     37.769450000000006
C      38.808549999999997     39.780205000000009     35.072450000000003
C      37.880849999999995     38.344456000000008     38.665049999999994
C      38.742249999999999     37.457225000000008     36.129949999999994
C      38.122050000000002     36.892025000000004     38.587549999999993
C      38.432850000000002     36.489725000000007     37.271150000000006
C      38.238949999999988     39.222805000000008     37.548749999999998
C      38.681650000000005     38.831789000000015     36.261150000000001
C      37.434849999999997     36.580525000000009     41.002150000000000
C      37.500850000000000     38.811796000000015     39.948449999999987
C      37.456950000000006     38.003125000000011     41.031350000000003
H      39.582849999999993     41.844475000000017     33.448949999999996
H      37.346549999999993     37.730525000000014     42.963650000000001
H      37.847750000000005     41.069305000000014     33.036349999999999
H      37.892650000000003     33.736125000000015     40.359449999999988
H      38.367949999999993     33.224624999999989     37.900250000000000
H      37.876050000000006     42.775375000000011     33.781750000000002
H      36.417150000000007     40.418465000000012     38.097650000000002
H      39.344049999999996     39.028088000000011     34.522949999999994
H      38.988150000000005     37.120425000000012     35.122250000000001
H      37.344049999999996     36.086225000000013     42.055850000000007
H      36.442850000000007     42.056615000000008     35.901850000000003
H      38.369650000000007     34.323225000000008     34.939050000000002
H      37.456249999999997     39.864985000000004     40.161349999999992
H      37.926449999999988     41.418905000000009     38.423150000000007
O      37.184849999999997     38.510497000000015     42.276650000000004
O      37.245549999999994     41.188075000000012     36.145449999999997
O      37.978849999999994     34.938725000000005     35.513649999999998
