11

C      39.190815000000001     37.941749999999999     38.584649999999996
C      37.914978100000013     38.613550000000004     38.909049999999993
C      36.634805000000000     38.268950000000004     38.681850000000004
C      39.266915000000012     37.694950000000006     37.055150000000005
H      38.862785000000002     36.600650000000002     36.751450000000006
H      38.219616000000016     39.399349999999998     39.647449999999999
H      36.288005000000027     37.417349999999999     37.960750000000004
H      35.872204999999994     38.994550000000004     39.154249999999998
H      38.332949000000013     38.138549999999995     36.482350000000004
H      40.026175000000009     37.619050000000001     39.346849999999996
H      40.127795000000006     37.735249999999994     36.352550000000001
