35

C      36.347600000000000     39.981549999999999     38.530249999999995
C      36.692200000000014     39.760350000000003     39.847350000000006
C      39.368800000000007     36.228350000000006     37.573549999999997
C      39.942400000000006     36.410050000000005     38.666650000000004
C      36.545500000000018     39.113650000000007     37.465249999999997
C      37.719200000000001     38.888450000000006     40.396349999999998
C      38.241400000000013     37.137650000000008     37.059650000000005
C      39.275000000000006     37.234050000000003     39.700650000000010
C      37.593499999999992     38.013349999999996     37.936450000000008
C      38.170299999999997     38.006050000000002     39.292749999999998
C      35.843700000000013     38.415550000000003     36.241550000000004
C      37.958200000000005     36.182750000000006     34.667650000000009
C      37.622600000000006     37.111150000000002     35.788750000000007
C      37.830400000000012     38.748950000000001     41.765050000000002
C      38.949100000000001     38.040549999999996     42.108149999999995
C      39.747400000000013     37.452550000000002     40.993250000000003
C      38.610599999999991     36.471750000000007     33.489950000000007
C      37.280300000000011     38.483649999999997     35.267650000000003
H      36.838800000000006     40.470750000000002     40.731850000000009
H      35.137900000000016     37.518950000000004     36.470650000000006
H      35.216000000000008     39.211850000000005     35.971350000000001
H      37.525600000000011     35.049050000000001     34.644150000000010
H      37.083600000000018     39.326649999999994     42.618250000000003
H      39.404100000000014     38.011650000000003     43.100449999999995
H      40.783700000000010     37.244650000000007     40.994250000000008
H      41.162099999999995     34.689750000000004     38.860050000000001
H      34.837900000000005     41.310250000000003     39.221249999999998
H      39.476600000000005     35.167450000000002     35.760449999999992
H      39.225400000000008     35.605650000000004     32.899550000000005
H      38.784599999999998     37.552650000000007     33.348550000000003
H      36.930499999999995     38.264050000000005     34.182150000000007
H      37.933600000000013     39.333850000000005     35.710750000000004
O      41.011700000000019     35.721950000000007     39.160550000000001
O      35.361800000000017     41.009650000000001     38.472850000000008
O      39.533600000000007     35.110350000000004     36.675550000000001
