33

C      37.498759999999983     37.811374999999991     38.041849999999997
C      36.592059999999989     36.895474999999998     37.924250000000001
C      40.276266000000000     34.029454999999992     36.675049999999999
C      38.967259999999996     37.419674999999998     38.070350000000005
C      36.840260000000001     35.296264999999998     38.054349999999999
C      40.489604000000000     35.330655000000000     37.254850000000005
C      38.892759999999996     33.901964999999997     37.094049999999996
C      39.303059999999995     36.073075000000003     37.667550000000006
C      38.288559999999983     35.063244999999995     37.624350000000007
C      37.573759999999986     39.236474999999999     37.937550000000002
C      36.121759999999995     39.715874999999997     37.859650000000002
C      35.126959999999997     38.735074999999995     38.026749999999993
C      35.223159999999993     37.319775000000000     37.923850000000002
C      38.457560000000001     40.316874999999996     38.193849999999998
C      38.192059999999998     41.657274999999991     37.734549999999999
C      36.862759999999994     41.940074999999993     37.175550000000001
C      35.778259999999989     41.068074999999993     37.694850000000002
C      39.723159999999993     38.249074999999998     38.814049999999995
C      39.691260000000000     39.661974999999998     38.832250000000002
C      40.752469000000005     40.473574999999997     39.199250000000006
H      40.916923000000004     33.146765000000002     36.387850000000000
H      35.948459999999997     34.682575000000000     37.243849999999995
H      41.481569999999998     35.657384999999998     37.291550000000001
H      38.202059999999989     33.141125000000002     36.786950000000004
H      34.274659999999997     39.183374999999998     38.578850000000003
H      34.296160000000000     36.596874999999990     37.777249999999995
H      39.153859999999995     42.326574999999998     37.827749999999995
H      36.456059999999994     42.858874999999998     36.905850000000001
H      34.701059999999998     41.400374999999997     37.859250000000003
H      40.609621000000004     37.610874999999993     39.158649999999994
H      41.725340000000003     39.758775000000000     39.612150000000000
H      40.629476000000004     41.646574999999991     38.993049999999997
H      36.562159999999992     34.632134999999991     38.913550000000001
