86

C      40.955949999999987     38.234849999999994     33.982899999999994
C      40.051449999999996     39.107049999999994     34.839700000000001
C      43.629349999999995     42.194450000000003     34.435499999999990
C      42.293250000000000     38.572249999999997     33.695999999999998
C      40.509449999999994     40.397749999999995     35.314399999999992
C      43.660149999999987     40.930750000000003     33.714799999999997
C      42.419249999999998     42.090050000000005     35.141900000000000
C      42.724149999999995     39.928850000000004     34.065100000000001
C      41.848250000000000     40.820550000000004     34.929600000000001
C      40.809849999999990     36.798850000000002     34.299300000000002
C      39.505249999999997     36.236750000000001     34.570900000000002
C      38.555949999999996     37.251449999999998     35.079599999999992
C      38.898849999999989     38.512550000000005     35.429000000000002
C      41.974049999999991     36.037250000000007     34.156799999999997
C      41.879749999999994     34.633350000000000     34.436599999999999
C      40.700649999999996     34.136850000000003     34.890099999999990
C      39.434849999999997     34.888050000000000     35.188499999999998
C      43.275349999999996     36.452350000000003     33.726899999999993
C      43.461750000000002     37.685450000000003     33.280600000000000
C      38.470749999999995     34.495550000000001     36.223499999999994
C      40.595849999999999     32.796450000000000     35.727499999999992
C      45.014549999999993     42.752049999999997     34.500100000000003
C      45.574149999999989     42.770050000000005     35.947000000000003
C      34.916449999999998     37.657050000000005     40.501800000000003
C      33.750749999999996     38.105650000000004     40.239800000000002
C      34.565549999999995     35.275849999999998     37.269500000000001
C      35.609849999999994     36.357950000000002     40.523200000000003
C      32.891449999999999     36.856749999999998     39.950399999999995
C      35.652749999999997     35.178950000000000     38.128899999999994
C      34.927149999999997     35.763349999999996     39.365000000000002
C      33.571050000000000     35.994850000000007     38.951799999999999
C      35.452749999999995     38.912649999999999     41.226599999999998
C      34.785750000000000     40.176050000000004     41.416200000000003
C      33.528349999999996     40.444450000000003     40.689999999999998
C      33.062849999999997     39.477150000000002     39.996299999999998
C      36.884549999999997     35.999650000000003     41.065700000000000
C      37.542549999999999     37.119550000000004     41.617199999999997
C      36.741749999999996     38.758649999999996     41.965499999999992
C      31.470549999999996     37.060050000000004     39.918499999999995
C      30.184949999999994     37.081049999999998     40.040500000000002
C      31.784349999999996     39.601749999999996     39.347600000000000
C      36.718950000000000     34.266750000000002     37.837800000000001
C      35.553349999999995     41.493649999999995     42.052100000000003
C      36.632949999999994     42.385750000000002     41.636400000000002
C      37.993649999999995     42.635949999999994     41.846100000000000
C      37.427549999999989     34.935050000000004     40.722499999999997
C      32.620649999999998     41.643049999999995     41.071199999999997
H      39.824449999999999     41.218450000000004     35.868499999999997
H      44.663249999999998     40.546950000000002     33.464700000000001
H      41.905749999999998     42.928850000000004     35.606599999999993
H      37.694550000000000     36.970850000000006     35.743499999999990
H      38.183849999999993     39.062049999999999     36.005600000000001
H      42.881849999999993     33.931450000000005     34.447099999999992
H      44.303149999999995     38.109250000000003     32.859900000000003
H      38.306249999999999     33.454749999999997     36.453499999999991
H      41.499349999999993     32.220350000000003     36.127800000000001
H      45.075049999999997     35.463950000000004     33.194299999999998
H      45.544549999999994     43.688050000000004     33.749999999999993
H      45.745949999999993     41.770849999999996     33.689000000000000
H      45.445549999999990     42.291350000000001     36.975899999999996
H      45.420250000000003     43.928950000000000     35.998099999999994
H      46.597050000000003     42.253049999999995     35.794799999999995
H      34.283549999999998     34.932350000000007     36.378799999999991
H      38.232849999999992     37.046650000000007     42.680199999999992
H      38.491049999999994     37.518850000000000     41.144399999999990
H      36.184749999999994     39.085049999999995     43.002799999999993
H      37.572149999999993     39.457149999999999     42.056399999999996
H      31.212249999999997     40.716950000000004     39.327399999999997
H      29.864849999999997     36.668250000000008     41.002299999999991
H      29.402949999999997     37.459949999999999     39.146699999999996
H      31.146049999999995     39.015850000000000     38.737699999999997
H      37.364749999999994     33.756350000000005     38.576899999999995
H      36.299249999999994     42.353550000000006     40.502000000000002
H      38.416349999999994     43.691250000000004     41.963299999999990
H      38.410149999999994     42.133250000000004     42.616300000000003
H      36.532549999999993     33.297350000000002     37.266100000000002
H      36.858449999999998     34.270650000000003     41.031799999999990
H      37.802249999999994     34.949450000000006     39.697800000000001
H      31.675049999999999     41.620950000000001     40.754199999999990
H      33.087750000000000     42.681450000000005     41.085699999999996
H      32.590550000000000     41.528649999999992     42.191899999999997
N      33.329349999999998     35.677250000000001     37.733499999999999
O      37.788049999999998     35.165150000000004     37.122900000000001
O      39.733049999999999     32.071050000000000     35.438400000000001
O      44.145149999999994     35.436950000000003     33.459600000000002
O      35.240549999999992     41.801250000000003     43.140099999999997
