46

C      37.491999999999997     38.336259999999996     38.506000000000000
C      38.578200000000002     37.383060000000008     38.802799999999991
C      41.027600000000000     41.061659999999996     37.143000000000001
C      37.683000000000007     39.594660000000005     37.853600000000000
C      39.924599999999998     37.682560000000002     38.425700000000006
C      39.623500000000007     41.090860000000006     37.411799999999999
C      41.419300000000007     39.849059999999994     37.850200000000001
C      39.120500000000000     39.945960000000007     37.881799999999998
C      40.209900000000005     38.968260000000008     38.136600000000001
C      36.110600000000005     37.902760000000008     38.766700000000000
C      35.834200000000003     36.529610000000005     39.107799999999997
C      36.915700000000001     35.551290000000002     39.182299999999998
C      38.276199999999996     35.920570000000005     38.869299999999996
C      35.016000000000005     38.805960000000006     38.698799999999991
C      33.751500000000007     38.582360000000001     39.312600000000003
C      33.402799999999992     37.240560000000002     39.469499999999996
C      34.337100000000007     36.184320000000007     39.294100000000000
C      35.172899999999998     40.009060000000005     37.803500000000000
C      36.505300000000005     40.416560000000004     37.645899999999997
C      36.631200000000007     34.301410000000004     39.797699999999992
C      38.752800000000001     33.696999999999996     39.011099999999999
C      39.277799999999999     34.969610000000003     38.574900000000000
C      41.035700000000006     36.652340000000002     38.908599999999993
C      40.650200000000005     35.270660000000007     38.474900000000005
C      34.016800000000003     40.396859999999997     36.913399999999996
C      42.695800000000006     39.678059999999995     38.294899999999998
C      41.927599999999998     42.288260000000001     36.838999999999999
H      40.768400000000000     36.690759999999997     39.850700000000003
H      39.197299999999998     41.955559999999998     36.868099999999998
H      33.189599999999999     39.358759999999997     39.914100000000005
H      32.434100000000001     36.813460000000006     39.822600000000008
H      34.006900000000002     35.132570000000008     39.317399999999992
H      37.004800000000003     41.142660000000006     36.889899999999997
H      35.577400000000004     33.914730000000006     40.121499999999997
H      39.472600000000000     32.888040000000004     38.745399999999989
H      42.119300000000003     36.781360000000006     38.674000000000007
H      43.565899999999999     40.264460000000007     37.942899999999995
H      41.174799999999998     35.106370000000005     37.450800000000001
H      41.400300000000001     34.445880000000002     39.101399999999998
H      34.809500000000000     40.813960000000002     36.135000000000005
H      43.007700000000000     38.680560000000000     38.791800000000009
H      42.984100000000005     42.135660000000001     36.961799999999997
H      41.554800000000000     42.837560000000003     35.878500000000003
H      41.800599999999996     43.111959999999996     37.545299999999997
N      37.630800000000001     33.498500000000007     39.728999999999999
O      32.992000000000004     39.742960000000004     36.810699999999997
