35

C      37.839549999999988     36.843974999999986     37.909099999999995
C      39.223150000000004     36.410074999999999     37.872900000000001
C      40.012850000000000     40.344974999999998     35.387500000000003
C      37.647550000000010     38.109274999999990     37.241299999999995
C      40.313749999999999     36.842274999999994     36.972900000000003
C      38.747950000000003     40.135574999999996     35.929299999999998
C      40.559249999999992     38.962974999999993     35.405999999999999
C      38.503450000000001     38.724074999999985     36.441099999999999
C      39.843950000000007     38.039774999999999     36.190399999999997
C      37.042450000000002     36.453775000000000     39.150500000000001
C      38.745849999999990     35.147275000000000     39.814799999999998
C      39.761449999999996     35.632074999999986     38.997599999999991
C      35.782650000000004     37.054574999999993     39.270499999999998
C      41.549350000000004     36.201774999999991     37.073999999999991
C      41.798149999999993     35.272374999999990     38.048999999999999
C      35.469850000000008     37.990974999999999     38.192499999999995
C      34.106349999999992     38.472574999999992     38.294100000000000
C      34.589650000000006     36.747674999999994     40.234099999999998
C      40.355949999999993     41.397513000000011     34.830199999999998
H      37.999350000000007     40.910809999999998     36.219000000000001
H      41.658650000000009     38.554774999999999     35.132300000000001
H      42.448649999999986     36.399574999999992     36.423900000000003
H      42.777050000000003     34.652774999999998     38.133600000000001
H      34.337649999999996     39.592574999999982     38.576299999999996
H      33.222949999999997     37.818474999999999     38.477799999999995
H      38.661550000000005     33.998674999999999     41.501100000000001
H      35.059150000000002     36.540574999999997     41.173099999999991
H      34.409050000000008     35.646274999999996     40.096999999999994
H      33.756050000000002     37.479474999999987     40.218600000000002
H      41.488150000000005     41.669674000000001     34.498899999999999
H      39.515949999999989     42.001325000000001     34.551399999999994
N      37.564350000000005     35.526374999999994     39.954700000000003
N      41.039150000000006     35.054874999999988     39.047199999999997
O      36.410950000000000     38.635074999999993     37.350900000000003
O      39.238650000000007     34.312274999999993     40.903599999999997
