110

C      37.224724999999992     37.115259999999992     34.025694999999999
C      43.820725000000010     37.615949999999998     30.911995000000005
C      36.877324999999999     35.951729999999998     33.027895000000008
C      43.662525000000002     36.337370000000007     30.207394999999998
C      38.542424999999994     37.598089999999999     34.144895000000005
C      43.298625000000001     37.502330000000001     32.328595000000000
C      37.289025000000009     34.476389999999995     31.064395000000005
C      41.869125000000011     34.648589999999999     29.204295000000009
C      38.205125000000010     34.289630000000002     29.881705000000004
C      40.570125000000004     34.191550000000007     28.961135000000006
C      40.820724999999996     37.585909999999998     32.946395000000003
C      37.731125000000006     35.473740000000006     32.024695000000001
C      42.428825000000003     35.526910000000001     30.213995000000004
C      39.715125000000000     34.763919999999999     29.983405000000005
C      39.484225000000009     37.068560000000005     32.959795000000007
C      41.820725000000010     36.984220000000008     32.226995000000009
C      39.120725000000007     36.040059999999997     32.081995000000006
C      41.559625000000011     36.030169999999998     31.198095000000002
C      40.160525000000007     35.589479999999995     31.040795000000003
C      36.368025000000003     37.434280000000001     35.098694999999999
C      35.222525000000005     36.657690000000002     35.182294999999996
C      35.066225000000003     35.508079999999993     34.518795000000004
C      35.637725000000003     35.202190000000002     33.259895000000007
C      35.329625000000007     34.110610000000008     32.278895000000006
C      36.239424999999997     33.657359999999997     31.322895000000003
C      45.003225000000000     38.445939999999993     30.683295000000008
C      45.765324999999990     38.310640000000006     29.497904999999996
C      45.733325000000008     36.911780000000007     29.015925000000003
C      44.713725000000011     36.115970000000004     29.240975000000006
C      38.012925000000010     38.563109999999995     36.174595000000004
C      36.616325000000003     38.252380000000002     36.235495000000007
C      38.797524999999993     38.679520000000011     35.060695000000003
C      38.369324999999989     39.176540000000003     37.511595000000000
C      37.722525000000005     33.489260000000002     28.916315000000004
C      46.555025000000001     39.498720000000006     29.009185000000009
C      44.191725000000005     37.628689999999992     33.316995000000006
C      32.665925000000001     38.268559999999994     43.873795000000008
C      32.565624999999997     38.784179999999992     42.551795000000006
C      39.873224999999991     41.338719999999995     46.104495000000007
C      37.353724999999997     40.211320000000001     39.586995000000009
C      33.981925000000004     38.161689999999993     44.579795000000004
C      40.632725000000008     41.018619999999999     44.965795000000007
C      38.409125000000003     39.924720000000008     40.408895000000001
C      33.829025000000001     39.296099999999996     41.969495000000002
C      36.151425000000003     40.100719999999995     40.584295000000004
C      39.956125000000000     40.122920000000008     42.443195000000010
C      36.362424999999988     39.068960000000004     44.806195000000010
C      39.813224999999989     40.460119999999989     43.924394999999997
C      35.189725000000010     38.707389999999990     44.048694999999995
C      38.613925000000009     40.067920000000001     41.896495000000002
C      35.113624999999999     39.201239999999999     42.538795000000000
C      38.619925000000009     40.282820000000001     44.739895000000004
C      36.275824999999998     39.644919999999999     41.956595000000000
C      37.581524999999999     39.554470000000009     44.136495000000004
C      37.483924999999999     39.604240000000004     42.703795000000007
C      33.604825000000005     40.171120000000002     40.777895000000008
C      34.824825000000004     40.289920000000009     40.084495000000004
C      31.451024999999998     38.192900000000009     44.558595000000004
C      30.186225000000000     38.355950000000007     44.046795000000010
C      30.173055000000002     38.624489999999994     42.659795000000010
C      31.302425000000003     38.928550000000001     41.785394999999994
C      31.119025000000001     39.815820000000002     40.647694999999999
C      32.242225000000005     40.591020000000000     40.418095000000001
C      39.874724999999998     40.107020000000006     39.876995000000001
C      37.471225000000004     40.365719999999996     38.074295000000006
C      32.157224999999997     41.699519999999993     39.420495000000003
C      40.579725000000010     41.838220000000007     47.376895000000005
H      39.938524999999998     41.580320000000000     48.233994999999993
H      40.985825000000006     39.746420000000001     42.143694999999994
H      40.370125000000002     33.555720000000008     28.057375000000008
H      42.795825000000008     34.326310000000007     28.563705000000006
H      41.082825000000000     38.421630000000007     33.638495000000006
H      34.597125000000005     36.978549999999998     36.202195000000010
H      34.264724999999999     34.118790000000004     32.618495000000003
H      35.867325000000008     33.044380000000004     30.321595000000009
H      45.167725000000004     39.201259999999991     31.519695000000006
H      44.457725000000011     35.008499999999998     28.818625000000004
H      36.185825000000008     38.319820000000007     37.252695000000003
H      47.327624999999998     37.727159999999998     28.218715000000003
H      33.596825000000010     34.395760000000010     35.696894999999998
H      39.833825000000004     39.224050000000005     35.065095000000007
H      38.376724999999993     38.398920000000004     38.329395000000005
H      39.310124999999999     39.621820000000000     37.667995000000005
H      38.507625000000004     33.457080000000005     28.123775000000002
H      36.691025000000010     33.141480000000001     28.752135000000003
H      45.691924999999998     40.226520000000008     29.532505000000008
H      47.524424999999994     39.591290000000001     29.705775000000003
H      46.748024999999998     39.429850000000002     27.766005000000007
H      45.268225000000001     37.591650000000001     33.254494999999999
H      43.693824999999990     37.394090000000006     34.299094999999994
H      33.815325000000001     38.056530000000009     45.684095000000006
H      41.641925000000001     41.549719999999994     44.696795000000002
H      36.189625000000007     38.653149999999997     45.751495000000006
H      34.525225000000006     40.848320000000001     38.963395000000006
H      31.472525000000001     38.011540000000011     45.598895000000006
H      29.384014999999998     38.618210000000005     44.853295000000003
H      30.119924999999999     40.273920000000004     40.316795000000006
H      39.896925000000010     40.784120000000001     39.095294999999993
H      36.508625000000009     40.970919999999992     37.701295000000009
H      32.852325000000008     42.125420000000005     38.475494999999995
H      31.930125000000000     42.588419999999999     40.157795000000000
H      31.588225000000005     41.690320000000000     38.515795000000004
H      40.694524999999999     42.955619999999996     47.258795000000006
H      41.616025000000008     41.515320000000003     47.473095000000001
H      28.475575000000003     37.887799999999999     42.656094999999993
N      38.640924999999996     40.839920000000006     45.905095000000010
O      46.756524999999996     36.884810000000002     28.133025000000004
O      33.751824999999997     34.927610000000001     34.971294999999998
O      40.606525000000005     39.180430000000001     39.682995000000005
O      28.927264999999998     38.404699999999991     41.957995000000004
