59

C      36.893099999999997     38.227549999999994     38.365769999999991
C      37.959400000000002     38.621049999999997     39.173969999999997
C      35.611699999999999     36.919049999999999     42.472549999999991
C      35.615600000000001     37.876450000000006     38.956069999999990
C      38.072400000000002     38.506050000000002     40.659982000000007
C      34.844999999999999     36.910650000000004     41.221840000000000
C      35.828900000000004     37.649150000000006     40.429375999999991
C      36.993899999999996     37.995450000000005     41.309609999999999
C      36.945399999999999     38.138450000000006     36.936470000000000
C      38.170100000000005     38.033749999999998     36.254669999999990
C      39.298800000000000     38.535250000000005     37.068869999999990
C      39.249799999999993     38.729349999999997     38.479069999999986
C      35.700200000000002     37.676249999999996     36.272269999999992
C      35.767299999999999     37.455250000000007     34.867769999999993
C      36.989199999999997     37.403350000000003     34.241769999999988
C      38.233300000000000     37.506649999999993     34.867570000000001
C      34.462100000000000     37.526350000000008     36.943069999999992
C      34.427399999999999     37.377549999999999     38.338569999999990
C      40.341399999999993     39.025850000000005     36.102669999999989
C      41.472600000000000     39.236649999999997     36.974969999999999
C      41.563700000000004     39.538249999999991     38.320269999999994
C      40.478000000000002     39.093050000000005     39.058269999999993
C      39.435700000000004     38.867449999999991     41.387019999999993
C      40.569200000000002     39.412850000000006     40.579073000000001
C      33.347500000000004     36.762550000000005     39.297469999999983
C      33.852600000000002     36.202449999999999     40.657144999999993
C      39.592499999999994     37.531549999999996     34.275970000000001
C      40.345100000000002     38.982749999999996     34.604669999999999
C      34.646699999999996     36.763350000000003     34.070969999999988
C      33.365600000000001     37.456350000000000     34.556969999999993
C      33.330600000000004     36.853850000000008     36.230269999999990
C      42.782800000000002     39.435549999999992     36.270669999999988
C      41.482799999999997     39.999449999999996     41.456550000000000
H      35.603699999999996     36.322350000000000     43.445030000000003
H      34.102000000000004     35.187650000000005     40.558711000000002
H      42.469099999999997     39.984249999999989     38.690369999999987
H      39.849900000000005     37.750250000000008     41.685489999999994
H      39.166300000000000     39.473849999999999     42.226639999999996
H      33.109900000000003     35.861050000000006     41.463220000000000
H      32.861099999999993     37.795050000000003     39.534369999999996
H      32.432500000000005     36.272350000000003     39.001169999999988
H      39.667800000000000     37.438950000000006     33.230269999999990
H      40.333200000000005     36.701350000000005     34.787369999999996
H      41.273600000000002     39.028450000000007     33.989069999999998
H      39.349899999999998     39.770550000000000     34.248669999999990
H      34.888900000000000     35.614750000000001     34.215369999999993
H      34.815700000000000     37.038849999999996     33.078669999999981
H      32.518200000000000     37.126649999999998     33.914969999999997
H      33.406800000000004     38.468150000000009     34.733669999999982
H      32.354799999999997     36.901250000000005     36.643469999999994
H      33.406199999999998     35.709850000000003     36.426469999999995
H      37.900799999999997     37.510850000000005     32.554969999999997
H      43.645200000000003     39.419550000000001     36.954169999999991
H      42.940899999999992     40.526750000000007     35.705369999999988
H      42.656199999999998     38.588650000000001     35.369869999999992
H      42.175199999999997     40.812349999999995     41.166629999999998
H      41.471099999999993     39.746549999999999     42.614440000000002
N      36.735199999999999     37.531850000000006     42.540839999999996
O      37.065999999999995     37.548950000000005     32.856870000000001
