30

C      38.756909999999991     37.682199999999995     38.771349999999998
C      37.985889999999998     36.563400000000001     38.280150000000006
C      35.089820000000003     40.906199999999998     37.431850000000004
C      34.718910000000008     39.870800000000003     36.420150000000007
C      38.039460000000005     38.925199999999997     39.070050000000002
C      36.774200000000008     36.836600000000004     37.638849999999998
C      36.053530000000009     40.597300000000004     38.331249999999997
C      35.233180000000004     38.553900000000006     36.615150000000007
C      36.830200000000005     39.299300000000002     38.389050000000005
C      36.299210000000002     38.212599999999995     37.600750000000005
C      40.178609999999992     37.470300000000002     38.968849999999996
C      40.937010000000001     36.205100000000002     38.666150000000002
C      40.183710000000005     35.165500000000002     38.260950000000001
C      38.780109999999993     35.339999999999996     38.084550000000000
C      38.822409999999991     39.830500000000001     39.921949999999995
C      40.151110000000003     39.672300000000007     40.080749999999995
C      40.890309999999999     38.560600000000001     39.471250000000005
C      36.105270000000004     36.101500000000001     36.538350000000001
H      33.963490000000007     39.985600000000005     35.411249999999995
H      34.783610000000010     41.886799999999994     37.622950000000003
H      36.414680000000004     41.448400000000007     39.008250000000004
H      34.728940000000009     37.737199999999994     35.954150000000006
H      41.979009999999988     36.354199999999999     38.713750000000005
H      40.565309999999997     34.113200000000006     38.089850000000006
H      38.271340000000009     34.423900000000003     37.647050000000000
H      38.294550000000001     40.439800000000005     40.588750000000005
H      40.969810000000010     40.616200000000006     40.453650000000003
H      42.036509999999993     38.699499999999993     39.238050000000001
H      35.634790000000010     35.444899999999997     37.366250000000001
O      35.584980000000002     35.980400000000003     35.437350000000002
