58

C      36.402399999999993     36.544849999999997     36.526100000000000
C      36.407300000000006     35.257649999999998     37.209900000000005
C      39.898800000000001     37.576149999999998     39.602500000000006
C      40.121499999999997     36.158950000000004     39.963700000000003
C      37.348200000000006     37.513050000000000     37.024699999999996
C      37.147500000000001     35.010449999999992     38.281700000000001
C      39.405500000000004     38.159350000000003     38.402000000000001
C      39.004299999999994     35.350850000000001     39.746499999999997
C      38.356900000000003     37.324150000000003     38.038800000000009
C      38.148000000000003     36.011350000000000     38.772800000000004
C      35.430400000000006     37.252450000000003     35.586700000000008
C      34.273600000000002     36.448250000000002     35.407700000000006
C      34.110499999999995     35.263249999999999     36.150000000000006
C      35.068799999999996     34.506149999999998     36.825499999999991
C      40.854300000000002     38.491849999999992     40.348299999999995
C      41.308300000000003     37.559850000000004     41.329800000000006
C      41.121300000000005     36.212750000000000     41.123199999999997
C      38.310400000000001     34.069449999999996     40.198899999999995
C      36.867800000000003     38.847149999999992     36.635999999999996
C      36.771000000000001     40.038249999999998     37.359800000000007
C      35.863500000000002     38.645250000000004     35.584900000000005
C      37.237700000000004     33.643750000000004     38.881399999999999
C      34.171100000000003     32.026350000000001     37.407299999999992
C      34.482399999999998     33.203650000000003     36.848100000000002
C      40.754000000000005     40.807749999999992     40.647599999999997
C      41.136899999999997     39.889149999999994     39.977699999999999
C      42.430999999999997     40.221549999999993     39.286699999999996
C      36.017800000000001     41.292149999999999     36.899299999999997
C      35.214300000000001     41.986549999999994     38.027000000000001
C      34.655500000000004     43.147349999999996     37.792900000000003
C      35.168300000000002     43.804849999999995     36.594700000000003
C      35.488799999999998     42.940649999999998     35.513999999999996
C      35.449200000000005     41.542749999999991     35.571500000000000
H      33.334600000000002     34.536349999999999     36.043000000000006
H      41.698999999999998     37.812849999999997     42.135899999999992
H      39.053200000000004     33.365349999999999     40.443899999999999
H      37.829299999999996     34.744950000000003     41.024500000000003
H      35.758600000000001     40.739049999999992     34.788600000000002
H      37.193099999999994     39.977249999999991     38.333900000000000
H      33.191699999999997     38.031950000000002     33.864100000000008
H      35.699300000000001     39.380850000000002     34.735200000000006
H      37.530900000000003     32.879049999999999     38.007799999999989
H      36.279599999999995     33.330449999999999     39.443399999999997
H      33.884799999999998     31.194250000000004     36.689400000000006
H      34.139099999999999     31.868549999999999     38.527799999999999
H      39.979300000000002     41.509050000000002     40.169499999999999
H      41.599600000000002     41.135849999999998     41.337299999999999
H      43.045400000000001     40.089049999999993     40.175600000000003
H      42.405900000000003     39.660950000000000     38.394400000000005
H      42.467300000000002     41.466650000000001     38.885900000000007
H      39.529599999999995     39.162450000000000     37.776600000000002
H      34.668500000000002     41.448550000000004     38.793799999999990
H      34.889300000000006     44.805749999999996     36.454999999999998
H      35.971900000000005     43.295650000000002     34.649400000000000
H      33.410099999999993     43.144849999999998     39.399099999999990
H      41.078899999999997     35.266249999999999     41.801999999999992
O      33.645300000000006     43.678249999999991     38.622700000000009
S      32.954599999999999     36.936950000000003     34.102300000000000
