118

C      37.069849999999995     31.469449999999995     38.597464999999985
C      37.580950000000001     32.759750000000004     39.284324999999995
C      40.761099999999999     36.149250000000002     40.078194999999994
C      42.090400000000002     36.691949999999991     39.559995000000001
C      43.738199999999999     42.148850000000003     37.750154999999992
C      39.729699999999994     36.975149999999992     40.532655000000005
C      43.102399999999996     43.329649999999994     38.050614999999993
C      43.301600000000001     40.880949999999999     38.199524999999994
C      40.707999999999998     43.075849999999996     39.341464999999985
C      39.606200000000001     42.087849999999996     39.716795000000005
C      38.964359999999999     39.505450000000003     40.094684999999984
C      42.075299999999999     42.611950000000000     39.009464999999992
C      39.937700000000007     38.423150000000000     40.209344999999999
C      39.799699999999994     40.610049999999994     39.630444999999995
C      42.171299999999995     41.174050000000001     38.979545000000002
C      41.213899999999995     38.907550000000001     39.761034999999993
C      41.272499999999994     40.208950000000002     39.672375000000002
C      40.654499999999999     34.684550000000002     39.969925000000003
C      41.704599999999992     33.762149999999998     39.752144999999999
C      43.107999999999997     34.312350000000002     39.666184999999999
C      43.115699999999997     35.722849999999994     39.318714999999997
C      40.459200000000003     44.540550000000003     39.167804999999987
C      39.098630000000000     44.829549999999990     39.519014999999996
C      38.056820000000002     43.891550000000002     39.885985000000005
C      38.393619999999991     42.573349999999991     40.191864999999993
C      39.191560000000003     34.307749999999999     39.959445000000002
C      39.158190000000005     32.896450000000002     39.650265000000005
C      40.101399999999991     31.795750000000005     39.843554999999995
C      41.476100000000002     32.199549999999988     39.623194999999996
C      38.163129999999995     35.027650000000001     40.637895000000000
C      38.454449999999994     36.382349999999988     40.818394999999995
C      44.231500000000004     33.569150000000000     40.218664999999987
C      45.516400000000004     34.100749999999998     39.888265000000004
C      45.651499999999999     35.352250000000005     39.325384999999997
C      44.572000000000003     36.123449999999991     38.951385000000002
C      44.812000000000005     37.610149999999997     38.603075000000004
C      47.121900000000004     35.875149999999991     39.244624999999999
C      37.402070000000002     39.256149999999998     40.154235000000000
C      43.503100000000003     44.760549999999995     37.885135000000005
C      31.217260000000003     35.037950000000002     34.078554999999980
C      31.090550000000000     36.083449999999999     33.286255000000011
C      32.559120000000000     38.587749999999993     38.760435000000001
C      33.068250000000006     37.742449999999998     37.841264999999993
C      36.917480000000005     40.182250000000003     38.645444999999995
C      33.249769999999998     39.834550000000000     39.221244999999996
C      34.352190000000000     37.906550000000003     37.016324999999995
C      35.544670000000004     40.667250000000003     39.347104999999999
C      36.607440000000004     39.047350000000002     37.707385000000002
C      34.577110000000005     39.791450000000005     38.836894999999998
C      35.217060000000004     38.796950000000002     37.728364999999997
C      31.416660000000000     38.046849999999992     39.632414999999995
C      30.997850000000000     36.759549999999997     39.443545000000000
C      31.018610000000002     36.172450000000005     38.117184999999992
C      32.157440000000001     36.650449999999992     37.519705000000002
C      30.935979999999997     38.836949999999995     40.731944999999996
C      30.025062000000002     38.256549999999997     41.715395000000001
C      29.664830000000002     36.886549999999993     41.575784999999996
C      29.962240000000001     36.174950000000003     40.279054999999985
C      31.767520000000005     39.887149999999991     41.192994999999996
C      33.058869999999999     40.133749999999999     40.646864999999991
C      30.025624999999998     35.171749999999996     37.686594999999997
C      30.143464000000002     35.042449999999988     36.227847999999994
C      31.408860000000004     35.192250000000001     35.596587999999997
C      32.405570000000004     36.088949999999997     36.110484999999997
C      29.526803599999997     34.774549999999998     40.024974999999998
C      28.881599999999999     34.865450000000003     38.621735000000001
C      34.560190000000006     37.259450000000001     35.763456000000005
C      33.578520000000005     36.364749999999994     35.324490780000005
C      34.056770000000000     41.039949999999997     41.208434999999994
C      35.166319999999999     41.488849999999999     40.453064999999995
C      29.443500000000004     36.023349999999994     42.792855000000003
C      35.697090000000003     37.639350000000000     34.837154999999996
H      37.685009999999998     30.753450000000001     39.092275000000001
H      35.889310000000002     31.185749999999999     38.654494999999997
H      37.120249999999999     31.579950000000004     37.422984999999997
H      44.541400000000003     41.976450000000000     37.102634999999992
H      36.746579999999994     32.815950000000001     39.993794999999992
H      39.644900000000000     30.266750000000002     40.824294999999992
H      37.547160000000005     33.761449999999996     38.584265000000002
H      36.980160000000005     38.307149999999993     40.223834999999994
H      43.880400000000002     39.869049999999994     38.446164999999993
H      41.108800000000002     45.379949999999994     38.652844999999999
H      38.704170000000005     45.733249999999998     39.140015000000005
H      37.172980000000003     44.451049999999995     40.281174999999990
H      37.716149999999999     41.985449999999993     40.771844999999999
H      42.281100000000002     31.623849999999997     39.418914999999984
H      37.186739999999993     34.531549999999996     41.079124999999991
H      37.631709999999998     37.096449999999997     41.219344999999990
H      44.427999999999997     32.489650000000005     40.629144999999994
H      46.403100000000002     33.571549999999995     40.136414999999985
H      44.257999999999996     38.011149999999994     37.834014999999994
H      47.749099999999991     36.865349999999999     38.933584999999994
H      37.453310000000002     39.810849999999995     41.095585000000000
H      43.577800000000003     45.442149999999991     38.796094999999994
H      44.703700000000005     44.420349999999992     38.011944999999997
H      43.000600000000006     45.167249999999996     36.932455000000004
H      31.449500000000000     34.092949999999995     33.412554999999998
H      31.353080000000006     36.207349999999998     32.090155000000010
H      31.069080000000000     37.069449999999996     33.900154999999998
H      28.364499999999992     33.958850000000005     38.251035000000002
H      37.369289999999999     41.217549999999996     38.223614999999995
H      37.255019999999995     38.182049999999990     37.681335000000004
H      29.421999999999990     38.850950000000005     42.292175000000000
H      31.448500000000003     40.309049999999999     42.428635000000000
H      29.380599999999994     34.673250000000003     35.591713999999996
H      28.193599999999996     35.824950000000001     38.634815000000003
H      33.621220000000001     35.994949999999996     34.261754999999994
H      33.474540000000005     41.481749999999998     41.877494999999996
H      35.967300000000002     42.197349999999993     40.716004999999996
H      29.364000000000001     35.019050000000000     42.439264999999992
H      35.484920000000002     37.358150000000002     33.647555000000011
N      42.249399999999994     37.944049999999997     39.618065000000001
O      45.448200000000000     38.450749999999999     39.192205000000001
O      47.806400000000004     35.433150000000005     40.134944999999988
O      40.037000000000006     30.427050000000001     39.984254999999990
O      29.839981000000002     36.231650000000002     43.909844999999990
O      36.454990000000002     38.508949999999999     35.052954999999997
O      29.823267999999999     33.622449999999994     40.290284999999997
