9

C      36.808799999999991     37.964399999999998     38.346349999999994
C      38.946800000000003     38.702900000000000     37.290949999999995
C      38.238699999999994     38.438500000000005     38.429549999999999
H      36.415599999999998     37.771299999999997     39.383049999999990
H      36.482999999999997     37.040800000000004     37.780549999999998
H      40.089900000000000     38.716800000000006     37.632849999999998
H      38.454299999999996     38.959199999999996     36.381450000000001
H      35.910100000000000     38.672800000000009     37.921749999999989
H      38.283699999999996     38.665800000000004     39.618549999999999
