37

C      38.054449999999996     37.186834999999995     38.386449999999989
C      37.124350000000000     36.320864999999998     37.776550000000000
C      36.375249999999994     41.034434999999995     35.894950000000001
C      37.938250000000004     38.696735000000004     38.004549999999995
C      36.205750000000002     36.797234999999993     36.696349999999995
C      37.377950000000006     40.574935000000004     36.826850000000000
C      35.250450000000001     38.761334999999995     35.343350000000001
C      37.218150000000001     39.097735000000000     36.905949999999997
C      36.300050000000006     38.221334999999996     36.153849999999998
C      38.963950000000004     36.611335000000004     39.229450000000000
C      39.068850000000005     35.232205000000000     39.471849999999989
C      38.225850000000001     34.340825000000002     38.805849999999992
C      37.214550000000003     34.851745000000001     37.909250000000000
C      39.941650000000003     37.647935000000004     39.601949999999995
C      40.926949999999998     37.086034999999995     40.466949999999990
C      41.043250000000000     35.629395000000002     40.807249999999996
C      40.189850000000000     34.680635000000002     40.208250000000000
C      39.936950000000003     39.171635000000002     39.784749999999995
C      38.881450000000001     39.511735000000002     38.714649999999999
C      39.060650000000003     41.020135000000003     38.487849999999995
C      38.373550000000002     41.611335000000004     37.313549999999992
C      35.509550000000004     40.125534999999999     35.144149999999996
C      35.025250000000000     35.989665000000002     36.459150000000001
H      39.541050000000006     39.404435000000007     40.857949999999988
H      36.164149999999992     42.046135000000000     35.766449999999999
H      38.536149999999999     33.388265000000004     38.805250000000001
H      36.960950000000004     34.211415000000002     37.099149999999995
H      41.875850000000000     37.495835000000000     40.838649999999994
H      41.726950000000002     35.484185000000004     41.634250000000002
H      39.999150000000000     33.795785000000002     40.756049999999988
H      40.840149999999994     39.736534999999996     39.670150000000000
H      39.732050000000001     41.627534999999995     39.032249999999998
H      38.661450000000002     42.611734999999996     36.784450000000000
H      34.403950000000002     38.073234999999997     34.920249999999996
H      34.663050000000005     40.418534999999999     34.365749999999998
H      34.124150000000000     36.436235000000003     36.164850000000001
H      34.843450000000004     34.869405000000000     36.466149999999999
