44

C      38.803649999999990     38.012599999999992     38.263749999999995
C      37.327449999999999     38.289499999999990     37.976150000000004
C      37.269149999999996     34.520600000000002     40.688249999999996
C      39.273149999999987     37.036900000000003     39.235349999999997
C      36.273350000000008     37.449500000000000     38.562049999999999
C      38.677450000000007     34.921999999999997     40.348849999999992
C      36.295749999999998     35.316299999999998     40.022549999999995
C      38.327849999999998     36.019400000000005     39.455150000000003
C      36.912750000000003     36.422499999999999     39.364950000000000
C      39.842650000000006     38.892399999999995     37.957549999999998
C      39.659849999999992     40.122900000000001     37.442049999999995
C      38.420150000000007     40.180599999999998     36.733850000000004
C      37.365449999999996     39.276299999999992     36.963949999999990
C      41.257649999999998     38.607799999999997     38.287249999999993
C      42.184150000000002     39.751599999999996     37.969250000000002
C      42.164150000000006     41.004800000000003     37.175650000000005
C      40.775749999999988     41.219800000000006     37.069550000000000
C      41.765449999999987     37.365600000000001     38.777150000000006
C      40.700649999999996     36.875399999999999     39.624249999999996
C      41.012349999999998     36.176800000000000     40.946950000000001
C      40.158150000000006     34.834999999999994     40.444349999999993
C      34.842349999999996     37.593599999999995     38.595549999999996
C      36.234150000000000     39.483400000000003     35.787649999999999
C      34.097549999999998     37.911699999999996     39.799750000000003
C      33.991550000000004     37.356099999999998     37.711349999999996
C      36.129949999999994     38.690500000000000     34.819950000000006
H      37.125950000000003     33.828599999999994     41.644849999999998
H      35.256849999999986     35.293099999999995     40.220249999999993
H      38.414650000000009     41.099000000000004     35.955750000000002
H      43.103749999999991     39.208299999999994     38.149050000000003
H      42.980750000000000     41.678799999999995     36.948149999999998
H      42.798249999999996     37.081999999999994     39.019649999999999
H      40.852050000000006     35.938699999999997     42.062249999999999
H      41.975149999999999     35.472899999999996     41.036149999999992
H      40.137550000000005     34.119000000000000     41.296250000000001
H      40.441050000000004     34.356800000000007     39.514650000000003
H      35.647050000000007     40.440899999999999     35.815349999999995
H      34.506550000000004     37.802199999999999     40.644850000000005
H      33.020750000000007     38.222999999999999     39.813549999999999
H      34.403649999999985     37.325400000000002     36.659350000000003
H      32.896250000000009     37.435699999999997     38.059849999999997
H      35.502049999999997     38.909499999999994     33.937750000000001
H      36.957049999999995     37.908400000000000     34.944850000000002
O      40.038449999999997     42.171400000000006     37.281950000000002
