55

C      37.826449999999994     37.195549999999997     37.541399999999996
C      36.807449999999989     37.873750000000001     38.086500000000001
C      33.894849999999998     34.636849999999995     37.705400000000004
C      37.977250000000005     35.767750000000007     37.447400000000002
C      35.906050000000000     37.168850000000006     38.987900000000003
C      36.316250000000004     34.117549999999994     36.834800000000001
C      36.544450000000005     35.302250000000001     37.617599999999996
C      35.495349999999995     35.952349999999996     38.308000000000000
C      38.993449999999996     37.961250000000007     36.958400000000005
C      38.998649999999998     39.368849999999995     36.888500000000001
C      37.755449999999996     40.004750000000001     37.205099999999995
C      36.520850000000003     39.252049999999997     37.573999999999998
C      40.106850000000001     37.160950000000000     36.549900000000001
C      41.406149999999997     37.865649999999988     36.232800000000005
C      41.275449999999999     39.263750000000002     36.738400000000006
C      40.188249999999989     39.992350000000002     36.959000000000003
C      40.021749999999997     35.674949999999995     36.169600000000003
C      38.972450000000002     35.015150000000006     36.740400000000001
C      38.770850000000003     33.474549999999994     36.491999999999997
C      37.405049999999996     33.649850000000001     35.823200000000000
C      35.635549999999995     36.913449999999997     40.494100000000003
C      35.856349999999999     41.390450000000001     38.071500000000007
C      35.443449999999999     40.172149999999988     37.757200000000005
C      37.418450000000000     41.421149999999997     37.086700000000000
C      40.628749999999997     42.256749999999997     35.996500000000005
C      40.249749999999999     41.660349999999994     37.053900000000006
C      42.454050000000002     37.340449999999990     35.516800000000003
C      42.220649999999999     35.910550000000001     35.305300000000003
C      41.089849999999998     35.167249999999996     35.461500000000001
C      34.274549999999998     39.766249999999999     37.795999999999999
C      34.919049999999999     34.061650000000000     36.804499999999997
H      32.794649999999997     34.135050000000007     37.561300000000003
H      38.558150000000005     32.936149999999998     37.446800000000003
H      39.485250000000001     33.172349999999994     35.779800000000002
H      37.251349999999995     34.358649999999997     35.067399999999999
H      36.748750000000001     32.680750000000003     35.359000000000002
H      36.526550000000000     36.562250000000006     40.717799999999997
H      34.634749999999997     36.428049999999999     40.282199999999996
H      35.259350000000005     42.136849999999995     37.691899999999997
H      36.102049999999998     41.612349999999992     39.263899999999992
H      37.128149999999998     41.434950000000001     35.801700000000004
H      38.058049999999994     42.226950000000002     37.147600000000004
H      41.227950000000000     41.597349999999992     35.144599999999997
H      40.543450000000000     43.319249999999997     35.810000000000002
H      39.537649999999999     41.881349999999998     37.993199999999995
H      43.205350000000003     38.077749999999995     35.284700000000001
H      43.180250000000001     35.177350000000004     34.913100000000000
H      41.064050000000002     34.324250000000006     34.966400000000000
H      42.297350000000002     40.868150000000000     37.142200000000003
H      34.097749999999998     39.553250000000006     38.768400000000007
H      34.095949999999988     38.943849999999998     37.121200000000002
H      34.682449999999996     33.631550000000004     35.785200000000003
H      35.360750000000003     37.770349999999993     41.086900000000000
N      34.167549999999999     35.667249999999996     38.343199999999996
O      42.357750000000003     40.055350000000004     36.511400000000002
