31

C      37.749899999999990     37.829604999999987     39.634599999999992
C      37.767800000000001     38.613105000000004     38.321699999999993
C      41.556399999999996     35.237304999999992     38.157100000000000
C      41.455900000000000     35.674004999999994     36.826300000000003
C      38.837199999999996     37.044704999999993     39.720799999999997
C      38.554099999999998     38.099204999999984     37.309800000000003
C      40.501099999999994     36.642205000000004     36.419499999999999
C      39.787999999999990     36.655405000000002     38.766399999999997
C      39.609699999999989     37.160704999999993     37.358600000000003
C      36.933700000000002     38.381304999999998     40.658600000000000
C      35.758400000000002     39.099004999999991     40.515599999999999
C      35.472099999999998     39.444604999999981     39.219799999999999
C      36.680699999999995     39.596204999999983     38.123899999999999
C      40.635899999999992     37.546004999999994     35.153800000000004
C      37.031399999999991     40.597765999999993     37.271000000000001
C      34.102199999999996     39.443004999999985     38.840400000000002
H      42.322499999999998     34.713804999999994     38.723800000000004
H      42.259200000000000     35.611904999999993     36.038400000000003
H      38.613599999999998     38.638705000000002     36.337000000000003
H      37.517899999999997     38.495204999999999     41.586399999999990
H      39.905400000000000     37.588705000000004     34.300300000000000
H      38.429699999999997     35.625304999999997     41.032000000000004
H      37.962400000000002     40.394580000000005     36.765100000000004
H      36.300800000000002     41.286195000000006     36.944699999999997
H      33.759999999999998     39.531504999999996     39.936700000000002
H      34.152699999999996     39.053304999999995     41.699700000000000
H      33.677500000000002     39.917817800000009     37.838699999999996
N      40.689799999999991     35.693404999999998     39.001100000000001
O      41.715699999999998     37.820804999999993     34.664700000000003
O      34.941200000000002     39.517304999999993     41.591099999999990
O      38.965600000000002     36.487205000000003     40.951999999999998
