5

C      37.746400000000008     37.943249999999992     38.021899999999995
H      37.015000000000001     37.839949999999995     37.301720000000003
H      37.751200000000011     37.155049999999996     38.698279999999997
H      37.504900000000006     38.844950000000004     38.421960000000006
H      38.984999999999999     38.047850000000004     37.635509999999996
