5

C      38.298099999999998     37.822599999999994     38.031249999999993
H      38.719400000000000     37.106300000000005     37.098450000000000
H      38.782699999999998     37.457300000000004     38.901550000000000
H      37.192300000000003     38.040599999999998     38.276849999999996
H      38.807699999999997     38.893699999999995     38.377549999999999
