5

C      38.221350000000001     38.055249999999994     37.976499999999987
H      38.984949999999998     38.276750000000000     38.706000000000003
H      37.015050000000002     37.990250000000003     38.255799999999994
H      38.666449999999998     37.190649999999998     37.337400000000002
H      37.840550000000007     38.809350000000002     37.293999999999997
