6

C      37.979299999999995     38.462449999999990     38.622299999999996
C      38.249700000000004     37.616650000000007     37.584400000000002
H      38.476600000000005     39.424549999999996     38.974500000000006
H      37.190600000000003     38.208650000000006     39.305399999999992
H      38.809399999999997     37.633949999999999     36.694600000000008
H      37.919300000000007     36.575450000000004     37.833600000000004
