49

C      39.312599999999996     38.041899999999998     37.868599999999994
C      38.329449999999994     38.722499999999997     38.781700000000001
C      35.285130000000002     36.531900000000000     35.218699999999998
C      34.479019999999998     37.462499999999999     35.823300000000003
C      38.814599999999999     37.791000000000004     36.513300000000001
C      37.010140000000000     38.933999999999997     38.080399999999997
C      36.863270000000000     36.540200000000006     35.058500000000002
C      35.212630000000004     38.354300000000002     36.563800000000001
C      37.472769999999997     37.533800000000006     36.127000000000002
C      36.626429999999999     38.509300000000003     36.721100000000000
C      40.565099999999994     38.857700000000001     38.030799999999999
C      40.791499999999999     39.625800000000005     39.226899999999993
C      39.978200000000001     39.415700000000001     40.386600000000001
C      38.636559999999996     39.025399999999998     40.097300000000004
C      34.772440000000003     35.535199999999996     34.372500000000002
C      33.446459999999995     35.587400000000002     33.843400000000003
C      32.742189999999994     36.594799999999999     34.460700000000003
C      33.091690000000000     37.385300000000008     35.632200000000005
C      41.299299999999995     39.125900000000009     36.888600000000004
C      42.657799999999995     39.543200000000006     37.082400000000000
C      43.253099999999996     39.852400000000003     38.413599999999995
C      42.311399999999999     39.769599999999997     39.405799999999999
C      39.753399999999999     38.044500000000006     35.416600000000003
C      41.164199999999994     38.358000000000004     35.579000000000001
C      35.956320000000005     39.401799999999994     38.945200000000000
C      36.234940000000002     39.631900000000009     40.356300000000005
C      37.530050000000003     39.455399999999997     41.001399999999997
C      39.060900000000004     37.743500000000004     34.034300000000002
C      38.025869999999991     39.796700000000008     42.362600000000000
H      37.186860000000003     36.829600000000006     34.110900000000001
H      37.219130000000000     35.454000000000001     35.304600000000001
H      34.482350000000004     38.988199999999999     37.166899999999991
H      40.425400000000003     39.321400000000004     41.324699999999993
H      35.728520000000003     35.196500000000007     33.848800000000004
H      33.157249999999998     34.972799999999999     32.990600000000001
H      31.683999999999997     36.830199999999998     34.117600000000003
H      32.316530000000000     38.127000000000002     36.019500000000001
H      43.315599999999996     39.181900000000006     36.275099999999995
H      44.316000000000003     40.116600000000005     38.605000000000004
H      42.993300000000005     39.966399999999993     40.348900000000000
H      41.899500000000003     37.538800000000002     35.492200000000004
H      35.447189999999999     39.964399999999998     41.279699999999998
H      34.949089999999998     39.684000000000005     38.653599999999997
H      38.986800000000002     36.397200000000005     34.005899999999997
H      39.512100000000004     38.234800000000000     33.079599999999999
H      38.352010000000000     38.573700000000002     33.562700000000000
H      38.063530000000000     41.027200000000001     42.540500000000002
H      38.900700000000001     39.197099999999999     42.846200000000003
H      37.088070000000002     40.185600000000001     43.009399999999999
