5

C      38.297749999999994     38.026550000000000     37.937149999999988
H      37.172649999999997     38.209649999999996     38.200749999999985
H      38.805749999999996     38.944149999999993     37.513649999999998
H      38.433549999999997     37.055850000000007     37.173450000000003
H      38.827350000000003     37.983950000000007     38.826549999999997
