8

C      37.233049999999992     37.721350000000001     39.347244999999987
C      37.428849999999990     38.154250000000005     37.811064999999999
C      38.296549999999996     37.588549999999998     36.946272000000008
H      38.097749999999998     38.019750000000002     35.933615000000003
H      37.611849999999990     36.854749999999996     40.005224999999996
H      36.844349999999999     39.145250000000004     37.740994999999998
H      39.325350000000000     37.224950000000007     36.936548000000002
O      36.674650000000000     38.543750000000003     40.066384999999997
