6

C      38.821649999999991     37.921215000000004     38.010599999999997
C      37.498450000000005     38.001233100000007     38.367599999999996
H      39.105249999999998     36.971014999999994     37.294600000000003
H      39.257549999999995     38.527207000000004     38.573399999999992
H      36.742450000000005     37.304415000000006     37.973399999999998
H      37.249749999999992     39.028985000000006     38.705399999999997
