13

C      38.371949999999998     38.614350000000002     39.447400000000002
C      37.831450000000004     37.241649999999993     38.789699999999996
C      37.605050000000006     37.445149999999998     37.297600000000010
C      38.649650000000008     38.523749999999993     36.878200000000000
H      37.749250000000004     39.460049999999995     39.101300000000002
H      38.704550000000012     36.431849999999997     39.096800000000009
H      37.075450000000004     36.714649999999992     39.289200000000001
H      38.232849999999999     36.709049999999991     36.630000000000003
H      36.438749999999999     37.787949999999995     37.237800000000000
H      38.336349999999996     39.568150000000003     36.993400000000001
H      39.561250000000001     38.097749999999991     37.271400000000007
H      38.767350000000008     38.264949999999999     35.759099999999997
O      39.245949999999993     38.387050000000002     40.240900000000003
