6

C      37.180799999999991     37.683349999999990     37.940750499999986
C      38.650599999999997     37.803849999999997     37.870950500000006
H      39.445000000000000     37.255449999999996     38.577498500000004
H      36.746299999999998     38.744550000000004     37.680950499999994
H      39.124200000000002     38.321549999999988     37.032850499999995
H      36.555000000000000     37.458650000000006     38.967149500000005
