12

C      37.699199999999998     37.085650000000001     37.272049999999993
C      37.049000000000007     38.421949999999995     38.009450000000015
C      38.196600000000004     39.005350000000007     38.817550000000011
C      39.138500000000008     39.599450000000004     37.890150000000006
H      38.483699999999992     36.512850000000000     38.058849999999993
H      37.094400000000000     36.116450000000000     37.289750000000012
H      36.706100000000006     39.070650000000001     37.038850000000011
H      38.570599999999999     39.586950000000002     36.959750000000000
H      36.090999999999994     38.201149999999998     38.613950000000003
H      39.909000000000006     39.883550000000000     38.441150000000007
H      38.209800000000001     39.290549999999996     39.858849999999990
H      37.809099999999994     37.162750000000003     36.141150000000010
