6

C      37.480699999999992     37.300799999999995     37.803649999999990
C      38.306199999999990     38.394600000000004     38.134349999999998
H      36.545400000000001     37.775500000000001     37.354950000000002
H      37.799799999999998     36.389500000000005     38.462249999999997
H      39.454599999999999     38.349000000000004     38.645049999999998
H      38.001799999999996     39.610499999999995     38.309650000000005
