9

C      38.006549999999990     38.157049999999998     37.385099999999994
C      38.884650000000008     37.036150000000006     37.577399999999997
C      36.784950000000009     38.337649999999996     38.293300000000002
H      38.162850000000006     39.026549999999986     36.749499999999998
H      38.879750000000001     36.540549999999996     38.633200000000002
H      39.890649999999994     36.983149999999995     37.029300000000006
H      37.039850000000001     37.788650000000004     39.250500000000002
H      36.109350000000006     37.548050000000003     38.128000000000000
H      36.626850000000005     39.459450000000004     38.587599999999995
