7

C      38.705864999999996     37.915299999999988     38.045599999999993
C      37.394115000000014     38.202599999999990     37.458900000000000
H      38.749895000000002     38.658099999999990     38.893699999999995
H      38.608945000000006     36.875200000000000     38.358200000000011
H      39.498084999999996     38.377299999999998     37.277600000000007
H      36.501915000000004     37.276799999999987     37.375400000000013
H      37.269015000000003     39.124800000000000     37.106300000000005
