47

C      40.118849999999995     38.480599999999995     37.809649999999991
C      34.130720000000004     36.413400000000003     41.137949999999989
C      39.456949999999999     39.356199999999994     38.866750000000010
C      34.736980000000003     37.582900000000002     41.577849999999998
C      39.663150000000002     37.176200000000001     37.726450000000000
C      34.796039999999998     35.558500000000002     40.236950000000007
C      38.528579999999998     38.854900000000001     39.873150000000010
C      35.948680000000003     38.030300000000004     41.031849999999991
C      37.789630000000002     35.649700000000003     38.022350000000003
C      36.584790000000005     35.008200000000002     38.664549999999991
C      38.621029999999998     36.656300000000002     38.649650000000008
C      36.101599999999998     35.954000000000001     39.681250000000006
C      38.173920000000003     37.433799999999998     39.688450000000003
C      36.774170000000005     37.099699999999999     40.171250000000001
C      37.971820000000001     39.664300000000004     40.785049999999998
C      36.774729999999998     39.192699999999995     41.394949999999994
C      41.099849999999996     39.054000000000002     36.915250000000000
C      41.720149999999997     40.268499999999996     36.962649999999996
C      40.951950000000004     40.926000000000002     38.082749999999990
C      39.994949999999996     40.649800000000006     39.130949999999999
C      39.260350000000003     41.635600000000004     40.074650000000005
C      38.048109999999994     41.081899999999997     40.869050000000001
C      39.597850000000001     36.324900000000000     36.601349999999996
C      38.559809999999992     35.375000000000000     36.882550000000009
C      41.547649999999997     38.092400000000005     35.727350000000001
C      41.219550000000005     38.484500000000004     34.354349999999997
C      42.612549999999999     37.147900000000000     35.901049999999998
H      36.698630000000001     33.353000000000002     37.275950000000009
H      42.313450000000003     40.539300000000004     34.206149999999994
H      32.896350000000005     36.091799999999999     41.304050000000004
H      34.198110000000000     34.677799999999998     39.747850000000000
H      38.119140000000002     34.810700000000004     36.056449999999998
H      42.388550000000002     40.616900000000001     36.257750000000001
H      41.593950000000000     41.767600000000002     38.027150000000006
H      39.977449999999997     41.614100000000001     40.908749999999998
H      39.010249999999999     42.646999999999998     39.538150000000002
H      37.521170000000005     41.561700000000002     41.976650000000006
H      40.187950000000001     36.470099999999995     35.679850000000002
H      42.937950000000001     36.298400000000001     35.074849999999998
H      41.700150000000001     37.766800000000003     33.673950000000005
H      33.554510000000001     38.921199999999999     41.681150000000002
H      43.103649999999995     37.130900000000004     36.810149999999993
H      40.121150000000000     38.679399999999994     34.157049999999998
O      41.613350000000004     40.035900000000005     34.149349999999998
O      36.221220000000002     40.218400000000003     41.862049999999996
O      33.821590000000000     38.205500000000001     42.326049999999995
S      35.466320000000003     33.838100000000004     37.810950000000005
