5

C      37.752549999999999     38.084900000000005     38.068249999999992
H      38.800849999999997     37.652500000000003     37.832949999999997
H      37.572450000000003     38.866900000000001     39.040850000000006
H      37.658650000000002     38.687500000000000     36.959149999999994
H      37.199150000000003     37.133099999999999     38.401249999999990
