39

C      36.499099999999999     39.593660000000000     39.226309999999998
C      35.511500000000005     38.725679999999997     39.791970000000006
C      36.069800000000008     34.792100000000005     37.405620000000013
C      37.649699999999996     39.329960000000007     38.324990000000000
C      35.625900000000009     37.376250000000006     39.414170000000013
C      39.019900000000000     37.478450000000009     37.378320000000002
C      37.778399999999998     37.965940000000010     37.972210000000004
C      36.695799999999998     36.885020000000004     38.397380000000013
C      38.620999999999995     40.267679999999999     37.980930000000001
C      38.837299999999999     35.238010000000010     38.293800000000005
C      39.487299999999998     35.980070000000005     37.407619999999994
C      39.699900000000007     39.853470000000009     37.232710000000012
C      40.009599999999999     38.470720000000007     36.622910000000005
C      38.957699999999996     33.751910000000009     38.783330000000007
C      40.959199999999996     35.633350000000007     36.894990000000007
C      37.689300000000003     35.894010000000009     39.108930000000001
C      36.159700000000008     40.959080000000007     39.731100000000012
C      37.322400000000009     41.653820000000003     40.152370000000005
H      34.708700000000007     39.089440000000003     40.365219999999994
H      35.112800000000000     34.441340000000004     37.069080000000000
H      34.236200000000004     36.059300000000007     39.230890000000002
H      38.495700000000006     41.277920000000009     38.188540000000003
H      36.454900000000002     34.329230000000010     38.246470000000002
H      39.592700000000001     38.292890000000007     35.634780000000006
H      41.178400000000003     38.140100000000004     36.718880000000013
H      39.318800000000003     33.373480000000001     37.901669999999996
H      38.068399999999997     33.454950000000004     39.393090000000001
H      40.597600000000000     34.453680000000006     37.072940000000003
H      41.763799999999996     35.979860000000009     37.656800000000004
H      41.188899999999997     36.008990000000004     35.902940000000001
H      39.540299999999995     33.561930000000004     39.634670000000000
H      38.284100000000002     36.341590000000004     40.033410000000003
H      37.228400000000001     35.028000000000006     39.802530000000004
H      38.352100000000000     41.169620000000002     39.791410000000013
H      35.242300000000007     41.417720000000010     39.735410000000002
H      36.787800000000004     42.626519999999999     40.167010000000005
N      35.985900000000008     36.130520000000004     37.417700000000011
O      40.453100000000006     40.780380000000008     37.058300000000003
O      34.549600000000005     36.649250000000009     39.820189999999997
