5

C      38.253549999999997     37.137199999999993     38.142349999999993
C      38.389650000000003     38.304400000000001     37.609550000000006
H      38.719149999999999     36.972600000000000     39.110050000000001
H      37.280850000000001     36.637400000000000     38.326049999999995
H      38.351050000000001     39.362600000000000     36.889949999999999
