41

C      36.158169999999998     37.996599999999987     38.612849999999995
C      36.422570000000000     36.533400000000000     38.503850000000000
C      42.141780000000004     36.074100000000001     38.442149999999998
C      37.154900000000005     39.140000000000001     38.570750000000004
C      37.786099999999998     36.063500000000005     38.548650000000009
C      40.713039999999999     35.615399999999994     38.577550000000002
C      39.491630000000008     39.673099999999991     38.572749999999999
C      40.968440000000008     39.516599999999997     38.589849999999984
C      38.470010000000009     38.604600000000005     38.557749999999999
C      41.174650000000007     38.010500000000008     38.792249999999996
C      38.837100000000007     37.213999999999999     38.711949999999987
C      40.196420000000003     36.984899999999996     38.853149999999999
C      34.840500000000006     38.593899999999991     38.404049999999998
C      33.941771000000010     37.403099999999995     38.552950000000010
C      34.173033000000004     36.109300000000005     38.992149999999995
C      35.452170000000010     35.544399999999996     38.568850000000012
C      39.193390000000001     41.148700000000005     38.230850000000004
C      40.322070000000004     42.145899999999983     38.326550000000012
C      41.566760000000002     41.686299999999989     38.494350000000011
C      37.705520000000007     41.369799999999984     38.054950000000005
C      36.650660000000002     40.500699999999995     38.539150000000006
C      35.348420000000004     40.726799999999997     37.910049999999998
C      38.324809999999999     34.719099999999997     38.111650000000012
C      39.751100000000001     34.644999999999996     38.187850000000012
C      40.256970000000010     33.249700000000004     37.720750000000010
H      40.993539999999996     32.824900000000000     38.405050000000003
H      43.009200000000000     35.390100000000004     38.094750000000005
H      32.990800000000007     37.732900000000001     38.186149999999998
H      33.335400000000021     35.540199999999984     39.191149999999993
H      35.636110000000009     34.509500000000003     38.378850000000000
H      40.099710000000009     43.206100000000006     38.609050000000011
H      34.534570000000009     41.479799999999997     37.759250000000009
H      37.705200000000005     33.983000000000004     37.596750000000000
H      37.347140000000003     42.235299999999995     37.884550000000004
H      41.877540000000003     43.429000000000002     38.916850000000011
H      39.344830000000009     32.570999999999998     37.718750000000000
H      40.625690000000006     32.986099999999993     36.808850000000007
N      42.302310000000006     37.412099999999995     38.591850000000008
N      41.867360000000005     40.437300000000008     38.552950000000010
N      34.466460000000005     39.748999999999995     37.938950000000006
O      42.481580000000008     42.724899999999991     38.631649999999993
