6

C      38.316549999999992     38.614399999999996     38.336199999999998
C      37.748049999999999     37.607099999999996     37.607600000000005
H      37.963449999999995     38.403499999999994     39.419699999999999
H      38.682150000000000     39.461599999999997     37.783399999999993
H      37.855649999999997     37.513000000000005     36.580300000000001
H      37.317850000000000     36.538400000000003     37.913099999999993
