38

C      37.323499999999996     38.497099999999996     35.438699999999990
C      36.418400000000005     40.673099999999998     35.303199999999997
C      38.250099999999989     37.080300000000001     37.314299999999996
C      39.287799999999990     36.299999999999997     37.938099999999999
C      37.922899999999998     38.454999999999998     41.683599999999991
C      37.180700000000002     37.483200000000004     38.282299999999992
C      39.149699999999996     35.789800000000000     39.325599999999994
C      37.260099999999994     38.786400000000000     40.462599999999995
C      38.568500000000000     37.286400000000000     41.529999999999994
C      37.551100000000005     37.555999999999990     39.652799999999985
C      38.321299999999994     36.484499999999997     40.267000000000003
C      38.455699999999993     37.692599999999999     36.051699999999997
C      39.794999999999987     37.950000000000003     35.550500000000000
C      40.864800000000002     37.250399999999992     36.096399999999988
C      40.543999999999997     36.375999999999998     37.241000000000000
C      35.996200000000002     37.899900000000002     37.536899999999996
C      36.319699999999997     39.498199999999997     35.690699999999993
C      35.211799999999997     38.913200000000003     35.058299999999996
C      36.088999999999999     39.505600000000001     37.239699999999999
C      40.165299999999988     38.460799999999999     34.155799999999992
H      34.969099999999997     37.987099999999998     38.261000000000003
H      37.305700000000002     38.044300000000000     34.381200000000000
H      36.445599999999999     41.421700000000001     35.964900000000000
H      37.041499999999999     40.817300000000003     34.370999999999995
H      38.092799999999997     39.222700000000003     42.657000000000004
H      36.541499999999985     39.414400000000001     40.198299999999996
H      39.403800000000004     37.208100000000002     42.214499999999994
H      41.871499999999997     37.723799999999997     36.032799999999995
H      41.423000000000002     36.216099999999997     37.870799999999996
H      35.676100000000005     37.164800000000000     36.789099999999998
H      40.475499999999997     34.640200000000000     40.308299999999996
H      35.297499999999999     40.193600000000004     37.209899999999998
H      36.627099999999999     40.334899999999990     38.022699999999993
H      40.338399999999993     37.762099999999990     33.342999999999996
H      41.059500000000000     39.341199999999994     34.152000000000001
H      39.192200000000000     39.124499999999991     33.798399999999994
N      34.128500000000003     38.503200000000000     34.710899999999995
O      39.683499999999995     34.578299999999999     39.600000000000001
