9

C      37.790499999999994     37.117299999999993     38.110900000000001
C      38.231800000000007     38.304999999999993     38.990099999999998
C      38.224699999999999     36.956299999999999     36.754300000000001
H      36.696800000000010     37.256999999999998     38.444099999999992
H      37.365300000000005     36.867000000000004     36.215299999999999
H      39.303199999999990     37.919999999999995     39.646500000000003
H      37.397199999999998     38.554100000000005     39.784700000000001
H      38.036700000000010     39.187600000000003     38.480800000000002
H      39.198200000000000     36.812399999999997     36.377799999999993
