5

C      37.861749999999994     38.115099999999998     37.747469999999993
H      37.891649999999998     38.370899999999992     38.808740000000000
H      37.223849999999999     38.944900000000004     37.325119999999998
H      38.776150000000001     38.806600000000003     37.346159999999998
H      37.939249999999994     37.055099999999996     37.191260000000000
