9

C      38.250549999999990     37.831369999999993     38.291950000000000
C      38.462949999999999     38.186525700000004     37.103850000000008
C      38.062149999999995     39.084471000000008     39.221549999999993
C      37.537050000000001     36.967769999999987     38.767449999999997
H      38.083150000000003     39.067171000000009     36.698049999999995
H      37.705649999999999     36.067169999999997     38.218850000000003
H      37.739950000000000     36.340169999999993     39.638750000000002
H      38.219050000000003     37.647169999999996     36.023049999999998
O      37.899749999999997     39.932830000000003     39.976950000000002
