6

C      37.450299999999999     37.830149999999996     38.580889999999997
C      38.159599999999998     37.484749999999991     37.541260000000001
H      37.693799999999996     39.047350000000002     39.181370000000001
H      37.083500000000001     36.962350000000001     39.128710000000005
H      38.916499999999999     38.201249999999995     37.280210000000004
H      38.647499999999994     36.952649999999998     36.818629999999999
