8

C      37.732999999999990     37.699299999999994     38.647249999999993
C      37.932500000000005     38.294699999999992     37.270649999999996
H      37.221400000000003     38.195899999999995     39.458449999999999
H      37.035499999999999     36.892899999999997     38.604849999999999
H      38.748199999999997     37.234799999999993     38.973549999999996
H      38.964500000000001     38.402000000000001     36.858849999999997
H      37.981099999999998     37.398899999999998     36.541550000000001
H      37.431100000000001     39.107100000000003     37.023849999999996
