99

C      38.104249999999993     36.987749999999991     34.747559999999993
C      36.171550000000003     39.281049999999993     36.244260000000004
C      30.945549999999997     42.988149999999990     43.463460000000005
C      31.518250000000002     41.961550000000003     44.319559999999996
C      34.670450000000002     39.127249999999989     36.094959999999993
C      36.845350000000003     38.611549999999994     37.362859999999998
C      31.196550000000002     43.090849999999996     41.944360000000003
C      32.347550000000005     41.094549999999998     43.518859999999997
C      33.907350000000001     39.012650000000001     37.259760000000000
C      36.218250000000005     36.638849999999998     39.045560000000002
C      35.379350000000002     36.214849999999991     40.044660000000000
C      34.254849999999998     37.404350000000001     42.026360000000004
C      33.592750000000002     38.682749999999992     42.415660000000003
C      32.268950000000004     41.794350000000001     39.790360000000000
C      36.020649999999996     37.947649999999996     38.387959999999993
C      34.511650000000003     37.356850000000001     40.526959999999995
C      31.780050000000003     41.859549999999999     41.227159999999998
C      32.321150000000003     40.870849999999990     42.187459999999994
C      34.627050000000004     38.465449999999997     38.369759999999999
C      33.094250000000002     39.781749999999995     41.500260000000004
C      33.218850000000003     39.531349999999996     40.136960000000002
C      33.997650000000000     38.304850000000002     39.614359999999991
C      32.722050000000003     39.991250000000001     44.383260000000000
C      32.920250000000003     38.735349999999990     43.708359999999999
C      36.822949999999999     39.369849999999992     35.038460000000001
C      36.207850000000001     39.847549999999998     33.887760000000000
C      34.796450000000000     39.970849999999992     33.819859999999998
C      34.068750000000001     39.445149999999998     34.862360000000002
C      29.915649999999999     43.855649999999990     44.076760000000000
C      29.801450000000003     44.052549999999989     45.468359999999997
C      30.509549999999997     43.118650000000002     46.318959999999990
C      31.400150000000004     42.117649999999998     45.791559999999997
C      32.311150000000005     41.382449999999999     46.718359999999997
C      32.217250000000000     39.891649999999998     45.769959999999998
C      38.326449999999994     38.162050000000001     37.390059999999991
C      38.774149999999999     38.148550000000000     35.856659999999998
C      38.418450000000000     39.433050000000001     35.025960000000005
C      36.850349999999999     40.452049999999993     32.631059999999998
C      33.388250000000006     40.820650000000001     39.519059999999996
C      42.891249999999999     34.501649999999998     31.912710000000004
C      42.097250000000003     34.318149999999996     30.653390000000002
C      39.238750000000003     36.917349999999999     33.696860000000001
C      42.661750000000005     35.415950000000002     33.083959999999998
C      40.819049999999997     35.063949999999998     30.793860000000002
C      40.648050000000005     36.867150000000002     34.140760000000000
C      39.081349999999993     36.217050000000000     32.585660000000004
C      41.338149999999999     36.095749999999995     33.099459999999993
C      40.378350000000005     35.790250000000000     32.107330000000005
C      43.843449999999990     33.582549999999991     31.712580000000003
C      44.314150000000005     32.573250000000002     30.606780000000001
C      43.489549999999994     32.475050000000003     29.416220000000003
C      42.599650000000004     33.619749999999996     29.521380000000001
C      44.820150000000005     33.611849999999997     32.844760000000001
C      45.696350000000002     32.529150000000001     32.920059999999999
C      45.290449999999993     31.755049999999997     30.909869999999998
C      43.859049999999996     35.667549999999999     33.907159999999998
C      44.795749999999998     34.542949999999998     33.998060000000002
C      45.901850000000003     34.208049999999993     34.981459999999998
C      43.671950000000002     36.962850000000003     34.674060000000004
H      37.532150000000001     37.329849999999993     33.946159999999992
H      32.207150000000006     43.576449999999994     41.713060000000006
H      36.759250000000002     35.923150000000000     38.509160000000001
H      35.424049999999994     35.066749999999999     40.335460000000005
H      34.137650000000001     36.315449999999998     42.347460000000005
H      31.948350000000005     42.736750000000001     39.090259999999994
H      32.577350000000003     37.939549999999997     44.428559999999997
H      34.434450000000005     40.724849999999989     33.031359999999999
H      33.084750000000000     39.756749999999997     34.916760000000004
H      29.134750000000004     44.290649999999999     43.394359999999992
H      29.292750000000005     44.916249999999998     45.741059999999997
H      30.585050000000003     43.483249999999991     47.331460000000000
H      31.525449999999999     41.024749999999997     47.520560000000003
H      32.662649999999999     39.192450000000001     46.393159999999995
H      31.078650000000003     39.869650000000000     45.538760000000003
H      38.104850000000006     37.243350000000000     37.833060000000003
H      38.750950000000003     38.681750000000001     38.074460000000002
H      37.538850000000004     39.651949999999999     32.407600000000002
H      39.893250000000002     38.356749999999991     35.741660000000003
H      38.760249999999999     39.272950000000002     33.999160000000003
H      36.133150000000001     40.867649999999998     32.029519999999991
H      32.698149999999998     39.212349999999994     37.282559999999997
H      38.970750000000002     40.586950000000002     34.857660000000003
H      37.511850000000003     41.136550000000000     33.022660000000002
H      38.171750000000003     35.942549999999997     32.052070000000001
H      43.559649999999998     31.838049999999996     28.479439999999997
H      42.003749999999997     34.045949999999991     28.480539999999998
H      45.469650000000001     31.083750000000002     30.036570000000005
H      46.714149999999997     34.810749999999999     35.080159999999992
H      43.721049999999998     37.905749999999991     34.242759999999997
H      43.482549999999989     37.014449999999997     35.701859999999996
H      30.427349999999997     43.496949999999991     41.329459999999997
H      40.898649999999989     37.512650000000001     35.087660000000000
H      34.012750000000004     41.059049999999992     38.700059999999993
H      37.698749999999997     35.986249999999998     35.086759999999998
H      45.617849999999997     34.001150000000003     35.970060000000004
H      33.348350000000003     41.593950000000000     47.053259999999995
N      46.004950000000001     31.534050000000001     31.983899999999998
O      39.937050000000006     34.400849999999998     30.292140000000003
S      46.865249999999996     32.494750000000003     34.305860000000003
