50

C      36.902249999999995     35.956299999999999     38.376329999999996
C      37.289850000000001     35.221600000000002     39.551829999999995
C      39.643249999999995     39.690799999999996     39.828329999999994
C      40.164349999999999     38.891100000000002     40.945229999999995
C      37.477049999999991     37.130400000000002     38.124429999999990
C      38.209649999999996     35.684500000000007     40.477230000000006
C      38.611849999999990     39.204100000000004     38.834129999999988
C      39.594849999999994     37.579700000000003     41.122529999999998
C      38.373549999999994     37.839800000000004     39.053229999999999
C      38.627449999999996     36.988800000000005     40.345929999999996
C      36.071550000000002     35.201000000000001     37.469830000000002
C      35.323250000000002     34.131500000000003     38.024729999999991
C      35.360149999999990     33.907600000000002     39.483230000000006
C      36.553249999999991     34.035400000000003     40.080629999999999
C      40.025449999999992     41.050000000000004     39.920529999999999
C      40.763849999999991     41.697000000000003     40.937629999999999
C      41.440849999999998     40.951100000000004     41.837629999999990
C      41.231949999999998     39.498799999999996     41.740529999999993
C      35.622349999999997     36.569200000000002     34.047060000000002
C      35.858850000000004     36.480800000000002     35.510030000000000
C      35.988349999999997     35.185500000000005     35.965829999999997
C      34.016649999999998     36.318600000000004     33.787059999999997
C      39.661149999999992     42.035900000000005     38.840129999999988
C      34.169950000000000     33.326900000000002     40.239930000000001
C      40.267650000000003     36.900199999999998     42.433430000000001
H      40.775250000000000     35.989200000000004     42.046229999999994
H      40.074749999999995     43.381899999999995     38.704530000000005
H      35.882449999999992     37.614000000000004     33.599519999999998
H      38.217150000000004     39.914800000000007     38.074730000000002
H      34.784049999999993     33.296300000000002     37.396330000000006
H      36.981250000000003     33.728100000000005     41.140730000000005
H      40.745350000000002     42.782799999999995     41.048629999999989
H      42.517650000000003     41.269500000000001     42.216729999999998
H      41.922449999999998     38.824400000000004     42.173230000000004
H      35.750950000000003     35.714299999999994     33.441260000000000
H      35.731049999999996     37.479800000000004     36.059529999999995
H      37.257949999999994     37.920700000000004     37.419830000000005
H      36.122850000000000     34.309900000000006     35.292429999999996
H      33.929649999999995     37.477400000000003     33.692179999999993
H      33.884550000000004     35.344900000000003     32.975970000000004
H      33.522049999999993     35.829900000000002     34.500730000000004
H      38.614249999999998     42.041199999999996     38.443730000000002
H      40.083349999999996     41.779400000000003     37.899730000000005
H      33.482349999999997     34.164100000000005     40.596930000000000
H      34.216549999999998     32.618100000000005     40.951929999999990
H      33.566949999999991     32.794800000000002     39.474429999999998
H      39.352149999999995     36.893100000000004     43.024029999999996
H      40.961249999999993     37.560900000000004     42.771029999999996
H      37.587549999999993     35.137300000000003     42.307530000000000
O      38.466849999999994     35.121300000000005     41.802030000000002
