9

C      37.705849999999998     38.108750000000001     38.657949999999992
C      37.356350000000006     39.069849999999988     37.620849999999990
C      38.216550000000005     36.686250000000001     38.272149999999996
H      37.126250000000006     37.760850000000005     39.488450000000000
H      37.228950000000005     40.126350000000002     37.952449999999999
H      37.372850000000007     38.842550000000003     36.511550000000000
H      37.453150000000001     35.873649999999998     38.288649999999990
H      38.873749999999994     36.885450000000006     37.371649999999988
H      38.725050000000003     36.531250000000000     39.152349999999998
