6

C      38.601199999999992     38.034949999999995     38.364189999999994
H      38.798800000000000     37.085250000000002     38.985689999999998
H      39.033499999999989     38.914749999999998     38.890689999999992
H      39.066500000000005     37.986649999999997     37.014310000000002
H      36.933499999999995     37.444849999999988     37.963180000000001
O      37.199399999999997     38.204049999999995     38.068860000000001
