5

C      38.068799999999996     37.978449999999995     37.960045000000001
H      38.925799999999995     37.661250000000003     37.226754999999997
H      38.343299999999999     38.778549999999996     38.773245000000003
H      37.738299999999995     37.221450000000004     38.581865000000001
H      37.074200000000005     38.092050000000000     37.371475000000004
