61

C      39.795649999999995     38.450799999999994     36.854659999999996
C      39.086250000000000     39.429900000000004     36.244278000000001
C      42.149349999999991     37.923999999999999     32.738789999999995
C      40.950249999999997     37.769500000000001     36.219385000000003
C      39.647149999999996     40.129799999999996     35.015490000000007
C      41.784250000000000     37.443200000000004     34.031889999999997
C      41.066450000000003     38.312600000000003     34.869790000000002
C      40.546149999999997     39.551399999999994     34.117989999999999
C      39.442450000000001     37.766900000000000     38.056829999999998
C      38.552750000000003     38.569000000000003     38.875510000000006
C      37.505049999999997     39.120099999999994     38.145879999999998
C      37.647250000000000     39.413699999999992     36.672000000000004
C      40.226450000000000     36.573000000000000     38.609979999999993
C      40.218549999999993     36.739699999999999     40.078659999999999
C      39.437249999999999     37.640300000000003     40.934920000000005
C      38.475050000000003     38.482599999999998     40.281219999999998
C      41.052250000000001     35.683199999999999     37.917070000000002
C      41.355750000000000     36.347099999999998     36.651130000000002
C      36.347050000000003     39.390900000000002     38.756090000000000
C      35.129350000000002     39.325299999999999     37.892829999999996
C      35.254649999999998     39.256799999999998     36.505335000000002
C      36.566549999999999     39.757400000000004     35.664497600000004
C      39.351950000000002     41.614299999999993     34.964490000000005
C      36.709150000000001     39.882800000000003     34.440490000000004
C      41.733649999999997     35.346200000000003     35.569890000000008
C      41.841349999999998     36.040500000000002     34.410590000000006
C      37.549150000000004     39.492300000000000     40.924399999999999
C      36.080249999999999     39.279600000000002     40.249810000000004
C      39.489249999999998     37.485700000000001     42.358030000000007
C      38.842649999999999     36.578800000000001     43.258280000000006
C      41.689649999999993     39.251500000000000     32.442190000000004
C      34.074449999999999     38.793300000000002     35.681024800000003
C      41.648050000000005     36.331800000000001     40.664220000000000
H      40.512549999999997     34.915100000000002     44.331970000000005
H      33.029750000000000     38.640200000000000     36.292332000000002
H      39.745349999999995     42.167800000000000     35.918383000000006
H      34.432549999999999     38.895400000000002     38.655689999999993
H      37.626249999999999     40.359300000000005     33.966589999999997
H      35.922650000000004     39.849400000000003     33.658389999999997
H      38.268550000000005     41.633099999999999     34.535590000000013
H      40.039750000000005     42.091900000000003     34.165489999999991
H      41.654949999999999     34.231099999999998     35.825977000000002
H      42.170250000000003     35.254700000000000     33.661989999999996
H      35.479350000000004     38.395900000000005     40.673830000000002
H      37.678749999999994     40.497999999999998     40.477869999999996
H      35.518949999999997     40.426099999999998     40.480090000000004
H      38.743850000000002     36.833799999999997     44.409010000000002
H      37.858049999999999     36.523700000000005     42.802470000000000
H      40.731850000000001     33.832200000000000     38.476190000000003
H      42.970250000000000     37.463200000000001     32.195690000000006
H      42.199249999999999     39.734700000000004     31.590989999999998
H      33.652650000000001     39.536000000000001     35.068590000000007
H      34.183750000000003     37.876200000000004     34.999789999999990
H      42.228050000000003     35.962200000000003     39.892069999999997
H      42.123449999999991     37.092599999999997     41.247040000000005
H      41.624449999999996     35.146700000000003     41.122400000000006
H      37.387149999999991     39.224000000000004     42.138150000000003
N      40.706150000000001     40.024200000000000     32.950189999999992
O      40.224850000000004     38.430599999999998     42.572220000000002
O      41.504649999999998     34.288699999999999     38.139059999999994
S      39.632850000000005     34.543500000000002     43.386859999999999
