5

C      38.021650000000001     37.842049999999993     38.117649999999983
H      38.585450000000009     38.596000000000004     38.516149999999996
H      37.319050000000004     37.403999999999996     38.760149999999996
H      38.771749999999997     37.522359999999999     37.515249999999995
H      37.228250000000003     37.978699999999996     37.239850000000004
