5

C      38.099599999999995     38.027199999999993     38.269394999999989
H      38.153500000000008     37.792700000000004     37.181335000000004
H      38.917500000000004     38.899200000000000     38.456845000000001
H      37.082499999999996     37.618800000000000     38.685134999999988
H      38.887699999999995     37.100800000000000     38.818664999999996
