54

C      35.312684999999988     42.508849999999995     37.986499999999999
C      34.357785000000000     41.186650000000000     37.813800000000008
C      42.683064999999999     34.266849999999998     35.201800000000006
C      43.107535000000006     35.507249999999999     34.883000000000010
C      41.596875000000004     34.055149999999998     36.028000000000006
C      36.726084999999991     42.318049999999999     37.715500000000006
C      35.156884999999996     40.250150000000005     38.658400000000000
C      39.557644999999994     35.003650000000007     37.125900000000009
C      38.858255000000007     36.136649999999996     37.519599999999997
C      38.518025000000002     40.742550000000008     37.022100000000009
C      37.167220000000000     38.615150000000000     38.192599999999999
C      40.838155000000000     35.241549999999997     36.444200000000009
C      37.325781000000006     41.018150000000006     37.727400000000010
C      36.556284999999995     39.947550000000007     38.355100000000007
C      39.294725000000007     39.628950000000003     37.089200000000005
C      41.333954999999996     36.457349999999998     35.921199999999999
C      39.345465000000004     37.405150000000006     37.248100000000008
C      38.469255000000004     38.573049999999995     37.542300000000004
C      40.693655000000007     37.604450000000000     36.535500000000006
C      37.455966999999994     36.150849999999998     38.072200000000002
C      36.833426800000012     37.327050000000000     38.561300000000003
C      35.318485000000003     36.944050000000004     39.036999999999999
C      34.276684999999993     38.033950000000004     39.457200000000007
C      33.396684999999998     40.896550000000005     37.009100000000011
C      32.247584999999994     37.116150000000005     40.911900000000010
C      33.430585000000001     36.981650000000002     40.148800000000008
C      41.361285000000002     32.595050000000001     36.597100000000005
C      40.114134999999997     32.556550000000001     37.604000000000006
C      38.895555000000002     33.620149999999995     37.117600000000010
C      34.142284999999994     39.371349999999993     38.944500000000005
C      34.820084999999999     43.749150000000000     38.024900000000009
H      35.216684999999991     35.985549999999996     39.561500000000002
H      43.285255000000006     33.351849999999999     35.381200000000000
H      44.176815000000005     35.587150000000001     34.394599999999997
H      37.530751000000002     42.976849999999999     37.289700000000011
H      39.053055000000001     41.478049999999996     36.308500000000009
H      36.793984999999992     35.186450000000008     38.287500000000009
H      34.829084999999999     36.653649999999999     38.130899999999997
H      33.246085000000001     41.638849999999991     36.157400000000010
H      33.056284999999995     39.841949999999997     36.953699999999998
H      31.982584999999993     38.133449999999996     41.250999999999998
H      31.823184999999995     36.395150000000001     41.605400000000003
H      33.292584999999995     36.013849999999998     39.812800000000010
H      41.087035000000007     32.183549999999997     35.740800000000007
H      42.165735000000005     32.131950000000003     37.322500000000005
H      40.006515000000007     33.054349999999999     38.679800000000007
H      39.876004999999999     31.434450000000002     37.605600000000010
H      38.047815000000007     33.598849999999999     37.884599999999999
H      38.056385000000006     33.398449999999997     36.394300000000001
H      33.153284999999990     39.679050000000004     39.328299999999999
H      35.570784999999994     44.565550000000002     38.528400000000005
H      33.688484999999993     43.706149999999994     37.987900000000010
N      42.460745000000003     36.641050000000007     35.113000000000007
S      40.848735000000005     39.331550000000007     36.071600000000011
