43

C      38.477000000000004     37.296749999999989     38.032049999999998
C      38.345599999999990     37.041350000000001     39.529150000000001
C      34.046000000000006     36.448649999999994     37.909250000000000
C      37.532399999999996     37.610949999999995     37.046949999999995
C      37.069900000000004     36.678549999999994     40.066950000000006
C      35.169299999999993     36.749350000000000     37.002949999999998
C      34.653399999999991     36.610250000000001     39.162250000000007
C      36.305899999999994     37.124249999999996     37.538050000000005
C      35.996099999999998     36.789149999999999     39.103749999999998
C      39.857299999999995     37.736049999999992     37.815450000000006
C      40.690699999999993     38.069949999999999     38.956049999999998
C      40.596099999999993     37.677949999999996     40.363150000000005
C      39.398499999999999     36.896449999999994     40.482250000000008
C      39.977400000000003     38.577949999999994     36.596050000000005
C      41.329799999999992     38.805850000000000     36.148550000000007
C      42.374600000000001     38.715849999999989     37.061850000000007
C      41.847600000000000     38.519549999999995     38.421250000000001
C      38.833399999999997     39.234449999999995     35.965649999999997
C      37.451099999999997     38.771349999999998     36.095050000000008
C      36.294600000000003     39.221049999999998     35.202050000000007
C      36.531700000000001     38.379849999999998     33.887950000000004
C      36.667299999999997     36.206449999999997     41.369049999999994
C      37.793399999999991     35.704949999999997     42.081850000000003
C      39.160399999999996     36.015049999999995     41.612150000000000
C      39.340499999999992     40.147149999999996     34.814650000000007
H      38.532399999999996     40.662549999999996     34.372250000000001
H      34.746700000000004     37.062049999999992     35.617050000000006
H      32.878900000000002     36.423650000000002     37.547750000000008
H      34.021299999999997     36.557749999999992     40.160950000000007
H      41.016300000000001     37.952849999999998     41.248549999999994
H      41.583100000000002     39.465849999999996     35.166150000000002
H      43.121099999999998     39.223049999999994     36.538150000000002
H      42.313299999999998     39.077749999999995     39.173150000000000
H      35.363299999999995     38.909849999999999     35.648350000000008
H      36.915800000000004     39.052450000000000     33.083050000000000
H      36.599000000000004     37.285949999999993     33.973150000000004
H      35.625299999999996     36.330349999999996     41.617450000000005
H      37.728499999999997     35.183850000000000     42.916950000000000
H      40.048500000000004     35.738749999999996     42.148350000000008
H      40.284700000000001     40.816150000000000     35.016449999999999
H      39.336299999999994     39.737349999999999     33.851149999999997
H      36.266399999999990     40.342649999999999     34.777049999999996
H      35.263599999999997     38.306749999999994     33.401250000000005
