36

C      39.613744999999987     39.607699999999994     34.740249999999989
C      35.662347999999994     38.497300000000010     35.522750000000002
C      39.592824999999991     36.964100000000002     41.105550000000008
C      36.891934999999989     39.122600000000006     35.109850000000009
C      40.408694999999994     36.863600000000005     39.915450000000007
C      35.263095999999997     37.746700000000004     36.688749999999999
C      38.177174999999991     36.974500000000006     40.831950000000006
C      37.917884999999991     38.614400000000003     36.032350000000008
C      39.997114999999994     36.885500000000008     38.662750000000003
C      36.352814999999993     37.064699999999988     39.057850000000002
C      36.293984999999992     37.445200000000014     37.581249999999997
C      37.738424999999992     37.098900000000000     39.449950000000001
C      37.704014999999991     37.738099999999989     37.245949999999993
C      38.626344999999993     37.278700000000001     38.303449999999998
C      39.297864999999987     38.645100000000014     35.719350000000006
C      40.899024999999995     36.537100000000009     37.495249999999999
C      35.076535000000000     36.939900000000009     39.981650000000002
C      42.056784999999991     36.024200000000008     37.726849999999999
C      33.977734999999996     37.174100000000010     37.018349999999998
H      34.348334999999985     36.109600000000000     37.357649999999992
H      40.690624999999990     39.787599999999998     34.272050000000007
H      38.932554999999994     40.443199999999990     34.487350000000006
H      34.767035000000000     38.134900000000002     34.968249999999998
H      40.210594999999998     36.812500000000014     41.993849999999995
H      37.073774999999998     39.194300000000013     34.006150000000005
H      41.500694999999993     36.758700000000005     40.319649999999996
H      37.324744999999993     36.843800000000002     41.548850000000002
H      34.712734999999988     35.922399999999996     39.941749999999999
H      39.877714999999995     38.015299999999996     36.369950000000003
H      35.386966999999991     36.899400000000014     40.907150000000001
H      34.039234999999998     37.339400000000012     39.740449999999996
H      42.677964999999993     35.556800000000010     37.221249999999998
H      40.601564999999987     36.038500000000013     36.388950000000008
H      33.385734999999997     37.878900000000002     37.708649999999992
H      33.322035000000007     36.775699999999986     36.302450000000007
H      42.330264999999997     36.096000000000004     38.737349999999992
