5

C      37.908690999999990     38.126300000000001     37.900449999999992
H      37.272954999999982     38.807200000000009     37.417649999999995
H      38.858845000000002     38.467200000000005     38.450049999999997
H      37.141154999999998     37.729399999999998     38.638150000000003
H      38.311993000000001     37.192799999999991     37.361849999999997
