25

C      38.892449999999997     39.671799999999990     37.947399999999988
C      37.664649999999995     38.860399999999998     38.285599999999988
C      37.635249999999999     38.153199999999998     39.494000000000000
C      38.717150000000004     38.272900000000007     40.336199999999991
C      39.854450000000000     39.100600000000000     40.040099999999995
C      39.922249999999991     39.828000000000003     38.810899999999990
C      36.791849999999997     38.344099999999997     37.212999999999994
C      36.003249999999994     36.993700000000004     37.019099999999995
C      38.740449999999996     37.733600000000010     41.742599999999996
C      37.064750000000004     36.061999999999998     37.619500000000002
C      38.044649999999990     36.217300000000009     36.684899999999999
C      38.388149999999996     39.270300000000006     34.753000000000000
H      38.195949999999996     38.514000000000010     42.221000000000004
H      36.710250000000002     37.446700000000007     39.701599999999999
H      40.710149999999999     39.580299999999994     40.832300000000004
H      40.938249999999996     40.369399999999999     38.611899999999991
H      35.061750000000004     36.982100000000003     37.511499999999998
H      35.761949999999999     36.768900000000002     35.869500000000002
H      36.938949999999991     35.630600000000001     38.673699999999982
H      37.674650000000000     37.068399999999997     35.909799999999990
H      39.187550000000002     36.170500000000004     36.814699999999988
O      36.543149999999997     39.364699999999999     36.627799999999993
O      39.821449999999999     37.285700000000006     42.158899999999988
O      37.907049999999998     38.880400000000009     33.778999999999996
S      39.350049999999996     39.737599999999986     36.091099999999997
