52

C      37.221414999999993     35.230800000000002     41.651449999999997
C      39.636334999999995     37.650399999999998     34.529050000000005
C      37.197834999999998     41.292500000000004     40.546350000000004
C      39.177024999999993     36.327700000000007     35.109549999999999
C      36.442745000000002     40.099800000000002     40.966450000000002
C      39.378855000000001     38.741100000000010     35.368749999999999
C      37.359494999999995     41.149800000000006     39.097450000000002
C      38.708474999999993     35.003200000000007     37.387550000000005
C      36.975884999999991     37.723900000000000     41.368650000000009
C      37.989425000000004     34.985000000000007     38.649350000000005
C      37.253284999999991     36.409500000000001     40.790350000000004
C      38.076734999999992     39.892400000000009     37.117049999999999
C      38.770614999999999     36.150500000000001     36.466250000000009
C      37.203064999999995     38.843200000000003     40.609950000000005
C      37.749044999999995     36.365100000000005     39.394850000000005
C      38.624465000000001     38.671399999999998     36.593350000000008
C      37.833424999999998     39.940600000000011     38.582650000000008
C      38.757735000000004     37.284799999999997     37.353850000000001
C      37.807884999999999     38.737800000000000     39.378050000000009
C      38.115384999999996     37.516800000000011     38.698550000000004
C      40.314114999999994     37.653800000000011     33.210009999999997
C      41.093015000000001     36.467700000000001     33.108469999999997
C      40.929915000000001     35.231300000000005     33.901490000000003
C      39.753934999999998     35.150900000000000     34.627050000000004
C      39.355035000000001     33.925500000000007     35.204549999999998
C      38.755285000000001     33.890300000000011     36.427650000000007
C      37.255074999999991     42.249900000000004     41.650250000000007
C      36.282644999999995     42.182700000000011     42.646550000000005
C      35.054925000000004     41.345300000000009     42.599850000000011
C      35.233714999999997     40.234400000000001     41.749550000000006
C      38.356645000000000     34.123700000000007     39.645350000000008
C      39.738665000000005     40.109600000000007     34.805250000000001
H      37.726095000000001     35.512400000000007     42.607250000000001
H      36.118614999999998     34.836700000000008     41.484350000000006
H      40.643414999999990     39.955400000000004     34.221950000000007
H      37.673475000000003     42.237200000000009     38.394750000000009
H      36.499275000000004     37.706099999999999     42.426350000000006
H      40.570214999999997     38.739300000000007     32.821110000000004
H      41.863414999999996     36.357100000000010     32.383450000000003
H      41.716514999999994     34.579799999999999     34.342850000000006
H      39.254874999999991     33.007000000000005     34.684250000000006
H      38.448954999999998     32.935700000000004     36.798950000000005
H      36.432094999999997     42.735600000000005     43.616549999999997
H      34.136585000000004     41.491600000000005     43.113650000000007
H      34.321035000000002     39.458199999999998     41.986950000000000
H      38.997754999999991     33.140300000000011     39.618450000000003
H      39.015615000000004     42.776000000000003     41.030850000000008
H      39.412044999999999     41.044100000000007     34.092660000000002
H      39.612085000000000     40.598000000000006     35.963250000000009
H      38.405034999999998     40.745800000000010     36.642650000000003
O      38.080995000000001     34.274600000000007     40.891650000000006
O      38.300784999999998     43.064299999999996     41.637950000000011
