18

C      36.756099999999996     37.676749999999998     39.381549999999997
C      37.356100000000005     38.847950000000004     39.702250000000006
C      38.314800000000005     39.225749999999998     38.696850000000005
C      37.872100000000003     38.840250000000005     37.508850000000002
C      37.000399999999999     37.902150000000006     37.223150000000004
C      36.785100000000000     37.370850000000004     35.761250000000004
H      40.189599999999999     39.520750000000000     39.240750000000006
H      37.943399999999997     39.871350000000000     41.193250000000006
H      37.431300000000007     40.074249999999999     36.084550000000000
H      36.575100000000006     36.342650000000006     35.732950000000002
H      37.525199999999998     37.646650000000001     34.806749999999994
H      35.810400000000001     38.047650000000004     35.868150000000007
H      36.582100000000004     35.876750000000001     39.849450000000004
N      36.588600000000000     37.168750000000003     38.161550000000005
O      39.477800000000002     40.123249999999999     38.952550000000002
O      37.332800000000006     39.151350000000001     41.060150000000000
O      36.664600000000000     36.738750000000003     40.345749999999995
O      38.255400000000009     39.517050000000005     36.186850000000007
