5

C      38.062499999999986     37.878699999999995     38.087199999999996
H      38.749300000000005     38.837100000000000     37.772900000000007
H      37.736999999999995     37.485800000000005     37.127099999999999
H      37.188000000000002     37.993000000000002     38.872900000000001
H      38.811999999999998     37.162900000000000     38.667900000000003
