34

C      37.155399999999993     37.783434999999997     38.815449999999998
C      36.797399999999996     36.520125000000007     38.292649999999995
C      35.911100000000005     39.029534999999996     34.521249999999995
C      36.925099999999993     38.935254999999998     37.937049999999999
C      35.954200000000000     36.378165000000010     37.042450000000002
C      36.460300000000004     39.796575000000004     35.591750000000005
C      35.605699999999992     37.681165000000007     34.911950000000004
C      36.347600000000000     38.951305000000005     36.758049999999997
C      35.966700000000003     37.394315000000006     36.203249999999997
C      38.084499999999991     37.997805000000000     39.999049999999997
C      38.468499999999999     36.791865000000001     40.574449999999999
C      38.206099999999999     35.445315000000008     40.080849999999998
C      37.369000000000000     35.335004999999995     39.002949999999998
C      37.716999999999999     40.226785000000007     37.941149999999993
C      37.070099999999989     39.555994999999996     41.430250000000001
C      38.898399999999995     40.648044999999996     38.635050000000007
C      38.221499999999999     39.358504999999994     40.921049999999994
C      39.369199999999992     37.251325000000008     41.738650000000007
H      39.313500000000005     38.150615000000002     42.343549999999993
H      35.641900000000000     39.243115000000003     33.391549999999995
H      35.755700000000004     35.390205000000009     36.759649999999993
H      37.126899999999999     40.737944999999996     35.381349999999998
H      35.550200000000004     36.945355000000006     34.129050000000007
H      37.014299999999999     34.433445000000006     38.631550000000004
H      38.033900000000003     34.420545000000004     41.714849999999998
H      39.018999999999998     41.721215000000001     38.140150000000006
H      37.644999999999996     41.024515000000008     37.271649999999994
H      39.474000000000004     39.786815000000004     39.056049999999999
H      39.121200000000002     39.815084999999996     41.246849999999995
H      36.125500000000002     39.188334999999995     40.889849999999996
H      39.630399999999995     36.449095000000000     42.608450000000005
H      40.449799999999996     37.210045000000008     41.305549999999997
H      36.829999999999998     40.323304999999991     42.241349999999997
O      38.560900000000004     34.278784999999999     40.831649999999996
