41

C      34.231499999999997     41.430099999999996     40.331799999999987
C      37.299700000000001     37.526300000000006     37.295499999999990
C      37.397300000000001     36.335400000000007     36.432900000000004
C      42.045800000000000     36.817999999999998     38.068399999999997
C      38.521000000000001     37.960999999999999     37.922700000000006
C      38.350200000000001     35.385300000000001     36.587699999999998
C      40.832899999999995     37.558400000000006     38.681299999999993
C      40.590599999999995     34.756000000000000     37.335999999999999
C      39.780699999999996     37.097300000000004     37.900099999999995
C      39.522700000000000     35.820700000000002     37.379499999999993
C      36.144499999999994     38.331699999999998     37.161100000000005
C      34.807500000000005     37.766999999999996     36.945499999999996
C      34.955199999999991     36.453200000000010     36.317999999999998
C      36.160499999999999     36.003100000000003     35.713200000000001
C      36.231499999999997     39.703800000000001     37.783000000000001
C      34.917999999999992     40.407400000000010     38.184500000000000
C      33.805700000000002     39.928899999999999     37.679000000000002
C      33.757800000000003     38.799400000000006     36.787400000000005
C      37.508299999999991     40.265000000000001     37.929400000000001
C      38.704899999999995     39.346400000000003     38.279200000000003
C      39.756099999999989     39.738300000000010     39.133300000000006
C      40.586900000000000     38.693500000000000     39.651300000000006
C      41.752899999999997     35.146299999999997     38.049499999999995
C      35.177099999999996     41.198099999999997     39.378699999999995
H      33.212800000000001     41.398000000000010     40.067400000000006
H      34.459199999999996     42.117099999999994     41.042400000000001
H      42.107899999999987     37.055199999999999     36.940299999999993
H      38.193699999999993     34.397199999999998     36.051599999999993
H      40.297600000000003     33.882900000000006     37.701999999999998
H      34.117199999999997     36.114199999999997     35.737399999999994
H      36.034799999999990     35.165800000000004     34.957599999999999
H      32.957300000000004     40.644800000000004     38.064300000000003
H      32.986000000000004     38.583500000000001     35.959800000000001
H      37.586999999999989     41.261300000000006     38.351100000000002
H      39.804299999999998     40.721699999999998     39.523200000000003
H      41.548399999999987     38.682499999999990     40.121200000000002
H      40.741699999999994     34.251500000000000     36.335400000000007
H      41.583600000000004     35.143299999999996     39.194900000000004
H      42.502399999999994     34.411200000000001     37.770099999999999
H      36.241499999999988     41.569000000000003     39.685900000000004
H      43.042699999999996     37.053700000000006     38.609800000000007
