5

C      38.030400000000000     38.184790500000005     38.236649999999997
H      37.825600000000009     37.216639499999999     38.796150000000004
H      38.548100000000005     38.113240500000011     37.103050000000003
H      38.720300000000009     38.676650500000008     38.896949999999997
H      37.279699999999991     38.783360500000001     37.820650000000008
