51

C      39.515700000000002     36.745599999999996     38.822239999999994
C      38.560700000000011     36.734800000000007     39.881639999999997
C      36.228300000000011     37.515200000000007     35.458310000000004
C      35.133500000000012     37.321400000000011     36.386839999999999
C      39.154500000000013     36.599399999999989     37.354040000000005
C      37.105100000000007     36.838400000000007     39.512639999999990
C      37.626200000000011     37.580599999999990     35.654879999999999
C      35.401900000000012     37.374600000000015     37.799740000000000
C      37.748200000000011     37.127700000000004     37.053840000000001
C      36.765500000000010     37.188100000000006     38.094640000000005
C      40.800700000000006     37.112400000000008     39.047339999999991
C      41.215100000000007     37.119699999999995     40.463439999999999
C      40.311600000000006     36.914800000000014     41.471539999999990
C      38.854400000000005     36.805399999999992     41.311039999999991
C      35.760800000000010     37.638099999999994     34.160860000000000
C      34.466000000000008     37.455800000000011     33.690100000000001
C      33.505700000000012     36.938000000000002     34.619560000000000
C      33.745900000000006     36.880900000000011     35.991520000000001
C      41.786500000000004     37.224700000000013     37.864340000000006
C      36.191900000000004     36.516700000000014     40.607640000000004
C      36.544800000000009     36.682100000000005     41.986840000000001
C      42.277600000000007     38.603100000000012     37.871440000000000
C      43.578600000000009     38.723600000000005     37.749139999999997
C      41.462500000000006     39.384099999999989     37.393140000000002
C      42.579900000000002     37.368000000000009     40.893440000000005
C      32.558300000000003     36.556000000000012     36.888939999999998
C      40.127300000000012     36.608900000000006     36.306440000000002
H      31.727600000000002     37.216699999999989     36.762639999999998
H      38.333400000000012     38.115600000000001     35.277860000000004
H      34.568900000000014     37.220800000000011     38.391640000000002
H      40.418200000000006     37.483800000000002     42.498640000000002
H      36.494100000000010     37.894600000000011     33.428760000000004
H      34.155200000000008     37.624400000000009     32.652960000000000
H      32.442600000000006     36.683600000000013     34.323750000000004
H      35.136600000000016     36.106400000000008     40.566740000000003
H      35.887400000000007     37.668900000000008     42.238940000000007
H      36.055800000000012     35.818300000000008     42.703640000000000
H      44.272399999999998     37.890300000000011     37.664439999999999
H      43.926400000000015     39.753500000000003     37.075440000000000
H      40.430600000000013     38.937100000000015     37.231240000000000
H      41.196100000000008     40.525399999999991     37.876640000000002
H      42.549000000000007     37.894800000000004     41.906939999999999
H      43.339700000000008     37.383799999999994     39.993740000000003
H      31.966200000000008     35.474600000000009     36.523440000000001
H      33.003700000000009     36.326900000000009     37.915340000000000
H      39.869900000000015     35.867800000000003     35.117699999999999
H      42.588100000000004     36.433800000000005     38.041739999999990
H      43.022700000000015     36.515700000000010     41.385539999999999
H      38.241400000000013     36.964800000000011     43.347040000000000
N      38.042100000000012     37.076499999999996     42.301840000000006
O      41.397100000000002     36.658100000000005     36.398040000000002
