5

C      37.927549999999997     37.999749999999992     38.179149999999986
H      37.493450000000010     38.213350000000005     37.192549999999997
H      38.841250000000002     37.487450000000010     38.206750000000000
H      37.158749999999998     37.374050000000011     38.807450000000003
H      38.337450000000004     38.625949999999989     38.685249999999996
