24

C      36.620844999999989     40.401499999999999     39.443749999999987
C      35.784334999999992     39.316300000000005     39.186650000000000
C      39.244994999999989     37.387200000000000     37.014649999999996
C      37.874994999999998     40.342000000000006     38.867849999999997
C      36.008054999999992     38.268100000000004     38.368150000000000
C      39.437494999999991     38.757300000000001     37.309649999999991
C      37.885194999999989     36.841999999999999     37.196950000000001
C      38.195095000000002     39.145600000000002     38.015749999999997
C      37.254505000000002     37.974300000000007     37.749849999999995
C      40.605894999999997     39.560400000000008     37.458349999999996
C      40.222294999999988     36.443500000000007     36.565049999999999
C      37.258464999999994     35.608900000000006     36.548449999999995
H      36.105064999999996     41.314299999999996     39.890249999999995
H      38.446694999999998     41.156100000000002     39.200249999999997
H      35.276124999999993     37.499000000000002     38.224549999999994
H      40.518594999999998     40.574600000000004     37.467449999999999
H      34.302205000000001     38.749800000000000     40.680250000000001
H      39.891694999999999     35.750200000000000     35.941049999999990
H      36.196444999999997     35.706200000000003     36.492449999999991
H      41.090494999999997     36.740800000000000     36.435649999999995
H      36.837834999999991     34.685700000000004     37.232149999999990
H      37.749494999999996     35.367900000000006     35.319749999999999
O      41.697794999999999     39.000300000000003     37.471249999999998
O      35.001685000000002     39.337000000000003     40.303849999999990
