5

C      38.181169999999995     38.091949999999990     38.011399999999988
H      38.726290000000006     38.536049999999996     37.165700000000001
H      38.469099999999997     38.766649999999998     38.834299999999999
H      38.806899999999999     37.233350000000002     38.282699999999991
H      37.193100000000001     38.003549999999997     37.764399999999995
