37

C      38.304249999999989     39.648099999999999     38.718249999999991
C      39.135850000000005     38.600300000000004     39.246249999999996
C      37.253550000000004     36.719200000000001     35.147149999999996
C      38.359650000000002     35.813699999999997     35.410049999999998
C      37.966049999999996     39.731300000000005     37.102349999999994
C      39.458650000000006     37.376300000000001     38.702550000000002
C      36.863650000000000     37.791600000000003     35.878349999999998
C      39.316550000000007     36.257700000000000     36.480249999999998
C      38.019149999999996     38.290300000000002     36.696950000000001
C      38.954549999999990     37.369499999999988     37.265450000000001
C      38.058850000000007     40.767300000000006     39.640650000000001
C      38.702349999999996     40.720399999999998     40.972949999999997
C      39.259950000000003     39.379300000000001     41.579850000000000
C      39.625849999999993     38.706000000000003     40.670749999999998
C      35.813549999999999     36.499700000000004     34.288849999999996
C      35.757249999999992     35.111199999999997     33.830149999999996
C      36.761050000000004     34.175500000000000     34.315749999999994
C      38.024050000000003     34.547300000000007     34.978349999999999
C      39.543450000000000     41.902299999999997     41.220349999999989
H      39.020049999999998     40.202500000000001     36.962550000000000
H      39.929950000000005     36.548900000000003     39.146749999999990
H      35.908250000000002     38.482900000000001     35.860649999999993
H      37.305850000000007     41.626700000000000     39.414449999999995
H      39.936149999999991     37.632300000000001     40.969649999999994
H      35.027250000000002     34.766599999999997     33.059049999999999
H      36.853049999999996     33.105500000000006     34.153549999999996
H      38.160449999999997     39.655100000000004     42.940950000000001
H      39.769850000000005     34.116900000000001     35.716349999999998
H      40.972749999999998     35.960999999999999     37.380549999999999
H      39.085949999999997     42.894499999999994     40.852550000000001
H      39.843950000000000     41.927999999999997     42.272849999999991
H      37.255650000000003     40.604700000000008     36.786149999999999
H      40.213750000000005     41.874899999999997     40.231049999999989
O      35.138350000000003     37.409000000000006     33.848649999999999
O      38.749649999999995     38.871399999999994     42.722649999999994
O      38.946550000000002     33.708200000000005     35.310749999999999
O      40.340749999999993     35.421899999999994     36.680349999999990
