6

C      37.576694999999994     38.275099999999995     37.482799999999990
C      38.322295000000004     37.383500000000005     38.312500000000000
H      36.964905000000002     37.900200000000005     36.616500000000002
H      37.088225000000001     39.221300000000006     38.035000000000004
H      39.035094999999998     36.778699999999994     37.914299999999990
H      38.426195000000007     37.776600000000002     39.383499999999998
