52

C      39.808159999999987     37.613049999999987     37.672999999999988
C      39.282089999999997     37.203350000000000     36.402299999999997
C      33.246359999999996     36.327749999999995     36.322500000000005
C      38.784269999999992     37.569050000000004     38.654700000000005
C      33.187629999999992     36.565250000000006     37.671700000000001
C      37.937019999999997     36.956050000000005     36.137000000000000
C      34.556179999999991     36.100749999999991     35.855999999999995
C      36.346999999999994     37.856250000000003     39.181799999999996
C      34.947409999999998     37.433949999999996     39.228200000000001
C      37.355929999999994     37.506950000000003     38.365899999999996
C      34.599499999999992     36.838650000000001     38.108699999999999
C      36.794939999999997     37.074749999999995     36.983100000000007
C      35.408989999999996     36.826449999999994     36.815600000000003
C      41.123699999999992     37.959049999999991     38.123800000000003
C      42.013829999999984     38.436149999999998     36.893200000000007
C      41.389129999999994     38.252750000000006     35.731300000000005
C      40.417759999999994     37.032449999999997     35.350700000000003
C      36.940879999999993     38.375249999999994     40.545800000000000
C      35.934889999999996     38.680549999999997     41.584699999999998
C      34.637569999999997     38.226150000000004     41.565599999999989
C      34.216279999999983     37.522549999999995     40.533799999999985
C      38.224489999999989     38.624349999999993     40.879100000000008
C      39.139679999999991     38.217550000000003     39.929599999999994
C      41.536379999999994     38.056749999999994     39.381000000000000
C      40.607459999999989     38.156050000000008     40.468900000000005
C      43.188199999999988     39.241849999999999     37.071500000000000
C      43.876799999999996     39.751649999999998     36.012500000000003
C      43.172499999999992     39.637150000000005     34.736000000000004
C      41.978599999999986     38.948250000000002     34.594700000000003
C      31.777699999999992     35.742850000000004     35.872799999999998
C      31.329799999999995     35.696650000000005     34.686300000000003
C      44.888999999999996     40.394949999999994     35.924400000000006
H      30.201300000000003     35.731549999999999     34.638300000000001
H      40.088129999999992     37.197649999999996     34.219499999999996
H      32.616188999999991     36.541349999999994     38.649699999999996
H      37.855189999999993     36.631850000000000     35.115700000000004
H      34.825769999999991     35.784549999999996     34.984300000000005
H      41.093679999999992     36.155249999999995     35.293099999999995
H      36.129689999999997     39.416650000000004     42.450099999999992
H      33.126018999999985     37.251850000000005     40.567300000000003
H      38.576719999999995     39.105050000000006     41.985399999999998
H      40.785859999999992     38.390050000000002     41.566699999999997
H      43.660799999999988     39.768149999999991     38.078000000000003
H      43.421399999999998     40.594049999999996     33.852300000000000
H      41.674829999999993     39.000850000000000     33.414699999999996
H      31.906199999999991     35.366950000000003     33.781400000000005
H      43.516399999999997     37.911349999999999     38.895399999999995
H      32.638695999999996     38.070449999999994     42.266300000000001
H      45.798699999999997     40.928650000000005     36.016400000000004
O      31.536799999999989     35.071349999999995     36.837599999999995
O      42.974999999999994     38.071250000000006     39.714599999999990
O      33.634719999999994     38.341250000000002     42.585300000000004
