47

C      35.798899999999989     39.752326999999994     36.753049999999988
C      36.480399999999996     39.846527000000002     38.040649999999999
C      39.465399999999995     35.276126999999995     39.215750000000000
C      38.786499999999997     36.622026999999996     38.989450000000005
C      35.708499999999994     38.633626999999990     35.950649999999996
C      37.539999999999999     38.916026999999993     38.220650000000006
C      38.719699999999996     34.067927000000005     39.056249999999991
C      37.729199999999992     36.499726999999993     38.265249999999995
C      36.227799999999988     37.420726999999992     36.459450000000004
C      37.123999999999995     37.556926999999995     37.506149999999991
C      35.090699999999998     40.849127000000003     35.992850000000004
C      35.421799999999998     42.096326999999995     36.554049999999989
C      35.588999999999999     42.042626999999996     38.011349999999993
C      36.869799999999998     41.227426999999999     38.570449999999994
C      40.696700000000000     35.382927000000002     39.983750000000001
C      41.419999999999995     36.380026999999991     39.769949999999994
C      40.908499999999997     37.940227000000000     39.673349999999999
C      39.545399999999994     37.880827000000004     39.076750000000004
C      34.787599999999998     38.941326999999994     34.859350000000006
C      34.321399999999997     40.226526999999990     34.965249999999997
C      38.901799999999994     39.071526999999989     38.522149999999996
C      37.300300000000000     42.006326999999992     40.967050000000000
C      36.682899999999997     41.131726999999991     40.079349999999991
C      37.745099999999987     33.330026999999994     38.893549999999991
C      37.022499999999987     33.797327000000003     37.760449999999992
C      40.864100000000001     34.429227000000004     40.807649999999995
C      34.840299999999999     42.775114400000007     38.912850000000006
H      35.224499999999999     43.092317000000008     36.299449999999993
H      42.309699999999999     36.549027000000002     38.989149999999995
H      41.802000000000000     38.251326999999996     39.107649999999992
H      34.335999999999991     38.196626999999999     34.297150000000002
H      33.690300000000001     40.619627000000001     33.970150000000004
H      35.988099999999996     40.327126999999990     40.317849999999993
H      39.314000000000000     39.945526999999991     39.075550000000007
H      38.057800000000000     42.671926999999997     40.663449999999997
H      36.909699999999994     41.804326999999994     42.029849999999996
H      37.778299999999987     41.690426999999993     38.020349999999993
H      37.590499999999999     32.315426999999993     39.212149999999994
H      37.215899999999991     33.229326999999991     36.523750000000007
H      36.054299999999991     34.134026999999996     37.216549999999998
H      41.962799999999987     33.948526999999984     40.761749999999992
H      35.196999999999996     42.927435000000003     39.997150000000005
H      34.370799999999996     43.684573000000000     38.481349999999992
H      40.716299999999997     38.365327000000001     40.582449999999994
H      35.793899999999987     36.440126999999990     36.133949999999999
H      40.082499999999989     33.758226999999991     41.206549999999993
O      37.585299999999997     35.304826999999996     37.526650000000004
