5

C      38.156300000000002     38.123749999999994     37.776749999999993
H      38.215199999999996     38.469549999999998     38.716050000000003
H      37.047399999999996     38.380849999999988     37.512549999999997
H      38.952600000000004     38.830050000000000     37.283949999999997
H      38.115400000000008     37.169950000000000     37.525449999999999
