29

C      34.558099999999996     37.935849999999988     35.592199999999991
C      37.470700000000008     37.895049999999998     37.829799999999992
C      37.526499999999999     36.435349999999985     37.949500000000000
C      41.692100000000003     37.805449999999993     40.337100000000007
C      41.286200000000001     36.442650000000000     40.671599999999998
C      38.702400000000004     38.517049999999998     37.804100000000005
C      38.655200000000008     35.683650000000000     38.461399999999998
C      40.931799999999996     38.490650000000002     39.281499999999994
C      40.229200000000006     35.752349999999993     39.845599999999990
C      39.920300000000005     37.901650000000004     38.438399999999987
C      39.848399999999998     36.534449999999993     38.582999999999998
C      38.949900000000007     39.963449999999995     37.660400000000010
C      40.274900000000002     40.414050000000003     38.088500000000010
C      41.242199999999997     39.882249999999999     38.941200000000009
C      36.188699999999997     38.382649999999998     37.238900000000001
C      35.731200000000001     37.418149999999997     36.130399999999995
H      33.719200000000001     38.328549999999993     36.131699999999995
H      33.888200000000005     37.583150000000003     34.242500000000007
H      42.280799999999999     38.462249999999997     40.872499999999988
H      41.200700000000005     36.279150000000001     41.757499999999993
H      38.527700000000003     34.503749999999997     38.871200000000002
H      38.085300000000004     40.440749999999994     37.560299999999998
H      40.157100000000000     41.496250000000003     38.299300000000002
H      42.159500000000001     40.427750000000003     39.165600000000012
H      36.425000000000004     36.947050000000004     35.505000000000010
H      36.622400000000006     34.760850000000005     37.812400000000011
O      35.794800000000009     39.482950000000002     37.629300000000001
O      36.525600000000004     35.632850000000005     37.627399999999994
O      39.600400000000008     34.993849999999995     40.489800000000002
