7

C      38.638099999999994     37.129499999999993     38.753150000000005
C      37.475700000000003     37.618600000000001     38.488849999999999
H      39.551600000000001     37.640300000000003     38.348750000000010
H      36.448399999999999     37.107300000000002     38.725250000000003
H      38.351400000000005     36.043300000000002     39.073650000000001
H      36.819400000000002     39.956699999999998     36.926349999999999
S      36.473499999999994     39.191600000000001     38.127849999999995
