6

C      38.024384549999994     38.794349999999994     38.229415000000003
H      37.933084549999990     36.302750000000003     38.205284999999989
H      38.552584549999992     39.697249999999997     37.901515000000003
H      37.882284549999994     38.611949999999993     37.065875000000005
H      37.061184549999993     38.466450000000009     38.934124999999995
S      38.938815450000007     37.121549999999999     38.573515000000000
