42

C      38.048833700000003     38.029049999999991     37.855849999999990
C      38.979785000000007     39.093149999999994     38.059849999999997
C      40.422385000000006     35.871150000000000     41.090350000000001
C      38.099299000000002     36.712049999999998     38.560350000000000
C      39.838625000000008     39.282049999999991     39.395150000000001
C      39.646344999999997     35.635149999999996     40.001549999999995
C      40.530455000000003     37.401750000000000     41.325649999999996
C      38.856419000000002     37.020550000000000     39.739849999999990
C      39.604095000000001     38.134149999999991     40.140650000000008
C      37.121134999999995     37.889550000000000     36.694350000000000
C      37.083434999999994     39.017049999999998     35.949349999999995
C      38.290677000000002     39.995849999999997     35.984049999999996
C      39.353835000000004     39.815249999999999     36.958449999999999
C      36.297835000000006     36.630249999999997     36.375150000000005
C      35.081035000000000     36.923150000000000     35.796450000000007
C      35.219035000000005     37.958049999999993     34.842750000000009
C      36.244235000000003     38.951650000000001     34.782449999999997
C      36.791335000000004     35.441949999999999     36.973849999999999
C      37.839235000000002     35.456249999999997     37.875949999999989
C      38.389981000000006     40.729950000000002     34.862750000000005
C      39.503985000000000     41.547150000000002     35.139650000000003
C      39.968235000000007     42.002549999999999     36.454850000000008
C      40.179514999999995     41.035249999999998     37.392250000000004
C      40.571155000000005     40.473649999999999     39.549750000000003
C      40.762925000000010     41.441749999999999     38.630949999999999
C      38.272570999999999     34.143049999999995     38.573250000000002
C      39.135714999999990     34.294649999999997     39.431349999999995
H      41.084654999999998     35.079549999999998     41.530749999999998
H      41.553865000000002     37.467050000000000     41.125250000000008
H      34.446134999999998     36.181849999999997     35.718249999999998
H      34.908334999999994     38.083150000000003     33.805250000000001
H      36.351235000000017     39.790049999999987     34.141450000000006
H      37.730035000000001     40.913649999999990     34.025450000000006
H      39.708065000000005     42.615949999999998     34.780950000000004
H      40.440645000000004     42.898150000000001     36.271450000000002
H      39.918284999999997     37.461149999999989     42.194749999999999
H      40.876694999999998     40.544149999999995     40.651350000000008
H      41.418885000000003     42.424849999999992     38.819249999999997
H      39.681094999999999     33.497749999999996     39.866550000000004
H      38.072837000000007     33.101849999999999     38.566649999999996
H      36.286535000000001     33.429349999999999     36.756250000000009
O      36.337135000000004     34.332650000000001     36.314750000000004
