5

C      38.012899999999995     38.021149999999984     37.921699999999994
H      38.615400000000001     38.677750000000003     38.524500000000003
H      37.404400000000003     37.460949999999997     38.826200000000000
H      38.614899999999999     37.322249999999997     37.279000000000003
H      37.384599999999999     38.360849999999999     37.173800000000000
