73

C      36.110499999999995     44.381549999999997     38.133999999999993
C      36.765400000000000     44.794750000000008     36.695999999999998
C      36.761400000000002     39.692850000000000     37.243899999999996
C      36.583399999999990     43.117150000000002     38.693899999999999
C      36.615600000000001     43.602550000000008     35.875999999999998
C      37.015899999999995     40.721350000000001     38.181700000000006
C      36.710299999999997     42.052950000000003     37.679000000000002
C      36.428200000000004     42.268850000000000     36.343499999999999
C      36.903799999999997     42.720350000000003     40.050600000000003
C      36.432900000000004     40.222549999999998     40.407700000000006
C      37.421599999999998     40.839750000000002     39.683700000000002
C      36.156400000000005     45.380450000000003     39.096100000000000
C      37.211499999999994     45.920749999999998     36.160899999999998
C      36.393700000000003     38.374249999999996     37.676199999999994
C      36.498799999999996     43.566850000000002     34.403800000000004
C      41.737700000000004     32.053150000000002     40.047200000000004
C      41.153599999999997     31.112950000000005     39.051200000000001
C      34.380099999999999     33.153150000000004     37.046100000000003
C      38.466999999999999     36.033050000000003     37.944900000000004
C      40.840800000000002     33.171350000000004     40.290399999999998
C      35.118300000000005     34.436750000000004     37.072900000000004
C      37.267199999999995     35.881650000000000     37.365099999999998
C      35.373600000000003     32.169450000000005     36.529600000000002
C      39.887600000000006     31.361150000000002     38.317799999999998
C      39.324399999999990     34.689950000000003     37.862900000000003
C      38.671799999999998     33.014250000000004     41.119900000000001
C      36.518400000000000     34.558050000000001     37.344499999999996
C      39.453200000000002     32.869550000000004     40.196899999999999
C      36.753200000000007     32.230350000000001     36.463000000000001
C      39.123500000000000     32.423150000000000     38.910100000000000
C      38.763500000000001     33.379449999999999     37.756000000000000
C      37.424000000000007     33.368350000000000     37.247000000000000
C      43.068500000000000     32.115450000000003     40.352800000000002
C      43.895899999999997     31.035250000000005     40.069100000000006
C      43.343900000000005     30.108149999999995     39.002399999999994
C      42.110700000000008     30.272649999999999     38.347700000000003
C      32.978600000000000     32.922750000000001     37.369799999999998
C      32.396799999999999     34.181450000000005     37.870400000000004
C      33.015799999999999     35.179949999999998     37.097700000000003
C      34.389499999999998     35.646850000000001     37.094700000000003
C      34.786000000000001     36.885449999999999     36.776200000000003
C      36.237800000000000     36.943750000000001     37.102099999999993
C      40.622600000000006     35.102550000000001     38.137199999999993
C      35.603200000000001     39.654650000000004     41.190799999999996
H      37.926000000000002     32.184350000000002     41.237399999999994
H      36.315899999999999     43.149850000000001     40.904199999999996
H      34.395300000000006     39.943650000000005     41.003200000000000
H      38.198099999999997     40.217750000000002     39.807399999999994
H      35.935400000000001     44.940950000000001     40.153300000000002
H      35.769700000000000     46.587150000000001     38.915199999999999
H      37.278599999999997     46.762550000000005     36.870900000000006
H      37.403700000000001     46.120950000000001     35.152799999999999
H      36.286700000000003     37.813250000000004     38.796899999999994
H      36.367000000000004     42.491950000000003     33.984099999999998
H      38.819099999999999     37.080449999999999     37.795100000000005
H      41.178600000000003     33.986350000000002     41.161299999999997
H      34.973500000000001     31.463549999999998     35.779899999999991
H      39.245000000000005     30.529750000000000     37.944800000000001
H      41.499899999999997     34.589750000000002     38.582400000000000
H      37.065899999999999     31.199349999999995     35.979799999999997
H      43.467999999999996     33.079149999999998     41.051200000000001
H      44.717900000000000     30.739150000000002     40.618499999999990
H      43.823999999999998     29.237449999999995     38.353000000000002
H      41.848900000000000     29.539249999999996     37.509700000000002
H      32.702800000000003     31.856650000000002     37.224100000000000
H      31.282100000000000     33.715850000000003     37.724699999999999
H      32.508099999999999     36.178449999999998     37.046199999999999
H      34.173000000000002     37.724049999999998     36.507800000000003
H      40.777299999999997     36.157550000000001     37.905600000000007
H      37.637999999999998     43.305350000000004     40.687700000000007
H      35.618000000000002     39.596250000000005     42.338099999999997
O      36.063299999999998     44.490949999999998     33.661900000000003
S      36.924700000000001     40.831250000000004     35.493700000000004
