57

C      35.973249999999993     37.885799999999996     39.294359999999998
C      36.417349999999999     38.435800000000000     38.070960000000007
C      40.563549999999992     36.353999999999992     40.428760000000004
C      40.935449999999989     37.261200000000002     39.429560000000002
C      36.905749999999998     36.966900000000003     40.066960000000002
C      37.735450000000000     38.151299999999999     37.566960000000002
C      39.110949999999988     36.390799999999999     40.724160000000005
C      40.190249999999992     37.421499999999995     38.232859999999995
C      38.279649999999990     36.872800000000005     39.576760000000000
C      38.750849999999986     37.467899999999993     38.385459999999995
C      34.610549999999989     38.071000000000005     39.768760000000007
C      34.009249999999994     39.351999999999997     39.421860000000002
C      34.266349999999989     39.979999999999997     38.111960000000003
C      35.338650000000001     39.492699999999992     37.496560000000002
C      41.673449999999988     36.026599999999995     41.432960000000001
C      42.753249999999994     36.894000000000005     41.645760000000003
C      43.272750000000002     37.344100000000005     40.430360000000000
C      42.390049999999988     37.471299999999999     39.317760000000000
C      34.189449999999994     37.121000000000002     40.817760000000000
C      32.789449999999988     37.353000000000002     41.391960000000005
C      32.323149999999998     38.607399999999998     40.977260000000001
C      32.742249999999999     39.534700000000001     39.960460000000005
C      34.890749999999997     35.936700000000002     41.089059999999996
C      36.282949999999985     35.912300000000002     40.955760000000005
C      37.225349999999992     35.295900000000003     41.741659999999996
C      38.515649999999994     35.758200000000002     41.852560000000004
C      37.712149999999994     38.561300000000003     36.088760000000001
C      36.922849999999997     39.433000000000000     35.462860000000006
C      35.915749999999989     39.955899999999993     36.186560000000007
C      40.656849999999991     37.981600000000000     36.921860000000002
C      42.135649999999998     37.894400000000005     36.924360000000000
C      42.961050000000000     38.042100000000005     38.089360000000006
C      37.020949999999999     39.656799999999997     33.829660000000004
C      36.012450000000001     40.673500000000004     33.052430000000001
C      43.739549999999994     36.879000000000005     42.915960000000005
H      33.550249999999991     40.755099999999999     37.664960000000001
H      41.576250000000002     34.928699999999999     41.965960000000003
H      44.231549999999999     37.903699999999994     40.378760000000007
H      32.380949999999999     36.645700000000005     42.016760000000005
H      31.277350000000002     38.811399999999999     41.190059999999995
H      32.023150000000001     40.300500000000000     39.604160000000000
H      34.352750000000000     35.212700000000005     41.844859999999997
H      36.899049999999988     34.447299999999998     42.371160000000003
H      39.075949999999992     35.069800000000001     42.671559999999999
H      38.431049999999999     37.900500000000001     35.424460000000003
H      35.049449999999993     40.268700000000003     35.604860000000002
H      40.076349999999991     37.943800000000003     36.040060000000004
H      42.629049999999992     37.545800000000000     36.037460000000003
H      44.036449999999988     38.364500000000000     37.878360000000008
H      37.349049999999991     38.574599999999997     33.536780000000000
H      37.888449999999992     40.146199999999993     33.997940000000007
H      36.724049999999991     41.523400000000002     32.325740000000003
H      35.147449999999992     40.392800000000001     32.537509999999997
H      35.585349999999991     41.552700000000002     33.715020000000003
H      44.094849999999994     38.098399999999998     42.909160000000007
H      43.764249999999990     36.104199999999999     43.674259999999997
H      44.722650000000002     36.576300000000003     42.773960000000002
