5

C      38.119706499999992     37.938249999999996     38.021849999999993
H      38.538046499999993     37.287450000000000     37.377849999999995
H      37.659716500000002     37.340450000000004     38.736649999999997
H      37.210473500000006     38.586449999999999     37.263350000000003
H      38.789526499999994     38.712550000000000     38.493250000000003
