32

C      37.895549999999993     36.386800000000008     37.877409999999998
C      39.191649999999989     36.229399999999998     38.513759999999998
C      38.146050000000002     41.115200000000016     36.920280000000005
C      37.681750000000001     37.463000000000008     36.979349999999997
C      40.102150000000002     37.096199999999996     37.588119999999996
C      38.329649999999994     39.859900000000010     36.813120000000005
C      38.627949999999991     38.469800000000006     36.605210000000007
C      40.166749999999993     38.351600000000005     36.847230000000003
C      36.945549999999997     35.567200000000014     38.637290000000000
C      37.306150000000002     35.142800000000008     39.866160000000001
C      38.620849999999997     35.023800000000008     40.426160000000003
C      39.623550000000002     35.774700000000010     39.798140000000004
C      36.321550000000002     38.077900000000000     36.763010000000001
C      35.452550000000002     35.421500000000009     38.357150000000004
C      36.051650000000002     38.494000000000000     35.224470000000004
H      34.690449999999998     35.762100000000004     39.217849999999999
H      35.300150000000002     35.820300000000003     37.332730000000005
H      41.309550000000002     37.075100000000006     37.406579999999998
H      36.932949999999998     41.292700000000011     37.074299999999994
H      40.873750000000001     40.119600000000005     36.233600000000003
H      38.750650000000000     34.413500000000013     41.363139999999994
H      40.692149999999991     35.777700000000010     40.008270000000003
H      35.537750000000003     37.771799999999999     37.589390000000002
H      34.916049999999998     34.477600000000010     38.257669999999997
H      38.464050000000000     41.785799999999995     36.115120000000005
H      36.573450000000001     34.214200000000005     41.245770000000000
H      36.425449999999998     39.064300000000003     37.128430000000002
H      35.702849999999998     37.554699999999997     34.636860000000006
H      35.190350000000002     39.032400000000010     35.228139999999996
H      36.912950000000002     38.970000000000013     34.750480000000003
N      41.132350000000002     39.257300000000015     36.686310000000006
O      36.341049999999996     34.515600000000006     40.497880000000002
