5

C      37.853249999999996     38.163299999999992     37.957899999999995
H      38.058049999999994     37.125700000000002     38.333399999999997
H      37.583550000000002     38.874299999999998     38.945099999999996
H      37.126649999999998     38.255400000000002     37.054900000000004
H      38.873350000000002     38.574899999999992     37.525199999999998
