37

C      39.646979999999999     37.394649999999992     41.033949999999990
C      39.080640000000002     37.806149999999995     39.609349999999999
C      37.708120000000008     38.271949999999990     39.539050000000010
C      38.360930000000010     37.440349999999995     35.047649999999990
C      39.908760000000001     37.521049999999995     38.448250000000009
C      37.162030000000001     38.682649999999995     38.228650000000009
C      39.570980000000006     37.062349999999995     35.781150000000004
C      37.567760000000007     38.207049999999995     35.933550000000004
C      39.449510000000004     37.729149999999997     37.094650000000009
C      38.200920000000011     38.474549999999994     37.198550000000004
C      35.815740000000005     39.131850000000000     38.137850000000007
C      35.367630000000005     39.756649999999993     39.344050000000003
C      36.114860000000007     38.574050000000000     35.763750000000009
C      34.061850000000007     38.984650000000002     40.055250000000001
C      40.396419999999992     35.787149999999997     35.575450000000011
C      41.075580000000002     37.730950000000000     40.960450000000002
C      42.137270000000001     37.123649999999998     41.159350000000011
H      39.580100000000002     35.088650000000001     35.632650000000005
H      39.330240000000003     38.105849999999990     41.858750000000001
H      39.147520000000000     36.333349999999996     41.198349999999998
H      40.912370000000010     37.053249999999998     38.348850000000006
H      38.271860000000004     36.786149999999999     34.141249999999999
H      36.151210000000006     39.924449999999993     40.127150000000007
H      35.138939000000008     40.911349999999999     39.281849999999999
H      36.963089999999994     37.125249999999994     41.243150000000007
H      35.873019999999997     37.557449999999996     35.738850000000006
H      36.091460000000012     38.841949999999997     34.692650000000000
H      33.225449999999995     38.512949999999989     39.467750000000002
H      33.680150000000012     39.694149999999993     40.752749999999999
H      34.538038000000000     38.250349999999997     40.655750000000005
H      41.371820000000000     35.809849999999997     36.138950000000001
H      41.067080000000004     35.358649999999997     34.713850000000001
H      42.774550000000005     37.734649999999995     40.535249999999998
H      42.551450000000003     36.451650000000001     41.755549999999999
H      41.028999999999996     38.544849999999990     40.219250000000009
O      35.203811999999999     39.022549999999995     37.042949999999998
O      36.981330000000000     38.055650000000000     40.639150000000008
