45

C      37.543649999999992     37.808449999999993     37.543549999999996
C      37.048250000000003     36.610050000000001     37.830649999999991
C      34.982250000000001     39.437849999999997     41.266750000000002
C      37.169750000000001     39.027050000000003     38.237849999999995
C      35.933950000000003     36.509749999999997     38.823349999999991
C      35.623950000000001     39.982849999999999     40.002650000000003
C      34.542850000000001     37.090649999999997     40.559849999999997
C      36.324950000000001     38.852649999999997     39.413349999999994
C      35.576450000000001     37.690449999999998     39.487150000000000
C      38.835849999999994     37.924149999999997     36.744249999999994
C      39.404349999999994     36.723449999999985     36.169550000000001
C      39.022749999999995     35.514250000000004     36.777549999999991
C      38.056249999999991     35.563649999999996     37.831850000000003
C      39.562749999999994     39.149049999999988     36.761650000000003
C      40.503250000000001     39.268850000000000     35.744249999999994
C      41.014150000000001     38.178550000000001     35.256950000000003
C      40.744349999999997     36.773150000000001     35.582349999999991
C      39.135350000000003     40.317149999999998     37.474049999999991
C      37.967050000000000     40.223749999999995     38.161049999999989
C      37.726949999999995     41.545950000000005     39.010649999999998
C      36.009749999999997     41.365849999999995     39.593649999999997
C      33.861950000000000     35.907150000000001     40.541249999999991
C      34.859749999999991     38.055350000000004     41.586449999999999
C      39.784050000000001     41.732149999999990     37.474249999999998
C      41.895049999999991     38.149649999999994     34.004949999999994
H      35.339250000000000     35.748349999999988     39.115150000000000
H      37.666149999999995     34.781149999999997     38.417149999999992
H      41.451950000000004     36.130549999999985     35.922749999999994
H      37.408149999999999     42.289749999999998     38.244950000000003
H      38.569549999999992     41.822450000000003     39.644149999999996
H      35.596249999999998     42.021450000000002     40.288550000000001
H      35.365349999999999     41.891349999999989     38.949950000000001
H      34.961750000000002     40.179049999999989     42.058349999999990
H      34.698250000000002     37.490750000000006     42.669150000000002
H      41.767249999999990     40.609650000000002     35.044649999999990
H      38.997549999999997     33.555149999999998     37.070149999999998
H      40.744050000000001     41.736449999999991     37.018549999999991
H      39.932749999999992     42.343149999999994     38.467549999999989
H      39.079650000000001     42.444850000000002     36.864649999999997
H      42.940750000000001     37.947050000000004     34.390950000000004
H      41.754749999999994     38.974350000000001     33.330849999999998
H      41.892749999999999     37.218649999999997     33.425349999999995
O      33.059249999999999     34.960149999999999     40.454849999999993
O      40.966149999999992     40.540649999999985     35.402349999999998
S      40.148549999999993     34.158050000000003     36.385949999999994
