5

C      37.919199999999989     38.186999999999998     37.875799999999991
H      38.928299999999993     37.959600000000009     37.560199999999988
H      37.762500000000003     37.230400000000003     38.310899999999997
H      38.394999999999996     38.769599999999997     38.816299999999998
H      37.071700000000007     38.620800000000003     37.183700000000002
