
     RDKit          3D

 49 54  0  0  0  0  0  0  0  0999 V2000
   -4.5040    1.0140    0.4220 C   0  0  0  0  0  0  0  0  0  0  0  0
   -5.6150    1.5870    0.9460 N   0  0  0  0  0  0  0  0  0  0  0  0
   -5.4190    2.6940    1.6600 C   0  0  0  0  0  0  0  0  0  0  0  0
   -4.2360    3.2680    1.8870 N   0  0  0  0  0  0  0  0  0  0  0  0
   -3.1440    2.6760    1.3520 C   0  0  0  0  0  0  0  0  0  0  0  0
   -3.2120    1.5040    0.5920 C   0  0  0  0  0  0  0  0  0  0  0  0
   -4.8600   -0.2010   -0.3650 C   0  0  0  0  0  0  0  0  0  0  0  0
   -4.0670   -0.9330   -0.9410 O   0  0  0  0  0  0  0  0  0  0  0  0
   -1.8490    3.3900    1.6310 C   0  0  0  0  0  0  0  0  0  0  0  0
   -1.9600    0.8690    0.0330 C   0  0  0  0  0  0  0  0  0  0  0  0
    1.0680    1.1780    1.0500 N   0  0  0  0  0  0  0  0  0  0  0  0
    4.7250   -1.3880   -0.8670 C   0  0  0  0  0  0  0  0  0  0  0  0
    2.4080    1.1150    0.7310 C   0  0  0  0  0  0  0  0  0  0  0  0
    4.3450   -0.1740   -0.2440 C   0  0  0  0  0  0  0  0  0  0  0  0
    0.3030    0.0830    0.7490 C   0  0  0  0  0  0  0  0  0  0  0  0
    3.7830   -2.4270   -1.1080 C   0  0  0  0  0  0  0  0  0  0  0  0
    0.2350   -2.2570   -0.2750 C   0  0  0  0  0  0  0  0  0  0  0  0
    1.2200   -3.0190   -0.7950 C   0  0  0  0  0  0  0  0  0  0  0  0
    3.0030    0.0020    0.1150 C   0  0  0  0  0  0  0  0  0  0  0  0
    0.8420   -1.0150    0.1320 C   0  0  0  0  0  0  0  0  0  0  0  0
    2.4650   -2.2370   -0.7360 C   0  0  0  0  0  0  0  0  0  0  0  0
    2.1520   -1.0420   -0.1580 C   0  0  0  0  0  0  0  0  0  0  0  0
    3.3060    2.2980    1.0060 C   0  0  0  0  0  0  0  0  0  0  0  0
    4.7750    1.8590    1.1770 C   0  0  0  0  0  0  0  0  0  0  0  0
    5.2870    0.9700    0.0230 C   0  0  0  0  0  0  0  0  0  0  0  0
   -1.1810    0.0260    1.0680 C   0  0  2  0  0  0  0  0  0  0  0  0
   -1.6640   -1.4620    1.1610 C   0  0  0  0  0  0  0  0  0  0  0  0
   -1.2250   -2.3850   -0.0120 C   0  0  0  0  0  0  0  0  0  0  0  0
   -6.2910    3.1720    2.0920 H   0  0  0  0  0  0  0  0  0  0  0  0
   -5.9420   -0.4170   -0.3990 H   0  0  0  0  0  0  0  0  0  0  0  0
   -1.1730    2.7610    2.2150 H   0  0  0  0  0  0  0  0  0  0  0  0
   -1.3630    3.6910    0.6980 H   0  0  0  0  0  0  0  0  0  0  0  0
   -2.0290    4.3010    2.2120 H   0  0  0  0  0  0  0  0  0  0  0  0
   -1.3270    1.6840   -0.3440 H   0  0  0  0  0  0  0  0  0  0  0  0
   -2.1580    0.2950   -0.8760 H   0  0  0  0  0  0  0  0  0  0  0  0
    5.7600   -1.5390   -1.1670 H   0  0  0  0  0  0  0  0  0  0  0  0
    4.1010   -3.3520   -1.5800 H   0  0  0  0  0  0  0  0  0  0  0  0
    1.1430   -4.0170   -1.1940 H   0  0  0  0  0  0  0  0  0  0  0  0
    3.2230    2.9970    0.1650 H   0  0  0  0  0  0  0  0  0  0  0  0
    2.9690    2.8150    1.9100 H   0  0  0  0  0  0  0  0  0  0  0  0
    4.8670    1.3000    2.1180 H   0  0  0  0  0  0  0  0  0  0  0  0
    5.4140    2.7440    1.2700 H   0  0  0  0  0  0  0  0  0  0  0  0
    6.2800    0.5860    0.2810 H   0  0  0  0  0  0  0  0  0  0  0  0
    5.3800    1.5680   -0.8910 H   0  0  0  0  0  0  0  0  0  0  0  0
   -1.3050    0.4570    2.0700 H   0  0  0  0  0  0  0  0  0  0  0  0
   -1.2510   -1.8890    2.0870 H   0  0  0  0  0  0  0  0  0  0  0  0
   -2.7520   -1.5020    1.2760 H   0  0  0  0  0  0  0  0  0  0  0  0
   -1.7710   -2.1090   -0.9200 H   0  0  0  0  0  0  0  0  0  0  0  0
   -1.4820   -3.4230    0.2250 H   0  0  0  0  0  0  0  0  0  0  0  0
  1  2  2  0
  1  6  1  0
  1  7  1  0
  2  3  1  0
  3  4  2  0
  3 29  1  0
  4  5  1  0
  5  6  2  0
  5  9  1  0
  6 10  1  0
  7  8  2  0
  7 30  1  0
  9 31  1  0
  9 32  1  0
  9 33  1  0
 10 26  1  0
 10 34  1  0
 10 35  1  0
 11 13  2  0
 11 15  1  0
 12 14  1  0
 12 16  2  0
 12 36  1  0
 13 19  1  0
 13 23  1  0
 14 19  2  0
 14 25  1  0
 15 20  2  0
 15 26  1  0
 16 21  1  0
 16 37  1  0
 17 18  2  0
 17 20  1  0
 17 28  1  0
 18 21  1  0
 18 38  1  0
 19 22  1  0
 20 22  1  0
 21 22  2  0
 23 24  1  0
 23 39  1  0
 23 40  1  0
 24 25  1  0
 24 41  1  0
 24 42  1  0
 25 43  1  0
 25 44  1  0
 26 27  1  0
 26 45  1  1
 27 28  1  0
 27 46  1  0
 27 47  1  0
 28 48  1  0
 28 49  1  0
M  END
