
     RDKit          3D

 50 57  0  0  0  0  0  0  0  0999 V2000
   -1.9920   -0.0310   -0.4460 C   0  0  0  0  0  0  0  0  0  0  0  0
   -0.6720   -0.5280   -0.1990 C   0  0  0  0  0  0  0  0  0  0  0  0
   -1.0800   -1.6760   -4.6980 C   0  0  0  0  0  0  0  0  0  0  0  0
   -2.6300   -0.2000   -1.7150 C   0  0  0  0  0  0  0  0  0  0  0  0
   -0.0000   -1.2550   -1.2030 C   0  0  0  0  0  0  0  0  0  0  0  0
   -2.1000   -0.9910   -4.1630 C   0  0  0  0  0  0  0  0  0  0  0  0
   -0.0250   -2.0070   -3.6880 C   0  0  0  0  0  0  0  0  0  0  0  0
   -1.8560   -0.8100   -2.7290 C   0  0  0  0  0  0  0  0  0  0  0  0
   -0.5880   -1.3540   -2.4580 C   0  0  0  0  0  0  0  0  0  0  0  0
   -2.6750    0.6330    0.6100 C   0  0  0  0  0  0  0  0  0  0  0  0
   -2.0620    0.8000    1.8750 C   0  0  0  0  0  0  0  0  0  0  0  0
   -0.7550    0.3310    2.0940 C   0  0  0  0  0  0  0  0  0  0  0  0
   -0.0450   -0.3080    1.0550 C   0  0  0  0  0  0  0  0  0  0  0  0
   -3.9800    1.1320    0.4260 C   0  0  0  0  0  0  0  0  0  0  0  0
   -4.6350    1.7790    1.4790 C   0  0  0  0  0  0  0  0  0  0  0  0
   -4.0070    1.9260    2.7170 C   0  0  0  0  0  0  0  0  0  0  0  0
   -2.7290    1.4460    2.9380 C   0  0  0  0  0  0  0  0  0  0  0  0
   -4.6140    0.9510   -0.7980 C   0  0  0  0  0  0  0  0  0  0  0  0
   -3.9690    0.2710   -1.8390 C   0  0  0  0  0  0  0  0  0  0  0  0
   -0.1580    0.5230    3.3560 C   0  0  0  0  0  0  0  0  0  0  0  0
    1.1550    0.0930    3.5860 C   0  0  0  0  0  0  0  0  0  0  0  0
    1.8840   -0.4930    2.5580 C   0  0  0  0  0  0  0  0  0  0  0  0
    1.2990   -0.6820    1.2960 C   0  0  0  0  0  0  0  0  0  0  0  0
   -2.1750    1.6170    4.1470 N   0  0  0  0  0  0  0  0  0  0  0  0
   -0.9170    1.1590    4.3330 C   0  0  0  0  0  0  0  0  0  0  0  0
    1.3030   -1.9690   -0.8880 C   0  0  1  0  0  0  0  0  0  0  0  0
    2.1500   -1.2020    0.1520 C   0  0  1  0  0  0  0  0  0  0  0  0
   -4.8220   -0.0320   -3.0070 C   0  0  0  0  0  0  0  0  0  0  0  0
   -5.7160    0.7220   -3.3730 O   0  0  0  0  0  0  0  0  0  0  0  0
    0.9960   -3.3940   -0.4020 C   0  0  0  0  0  0  0  0  0  0  0  0
    2.8960   -0.0290   -0.5040 C   0  0  0  0  0  0  0  0  0  0  0  0
   -0.9940   -1.9260   -5.7460 H   0  0  0  0  0  0  0  0  0  0  0  0
   -2.9250   -0.5910   -4.7290 H   0  0  0  0  0  0  0  0  0  0  0  0
    0.9320   -1.5600   -3.9730 H   0  0  0  0  0  0  0  0  0  0  0  0
    0.0730   -3.0890   -3.5630 H   0  0  0  0  0  0  0  0  0  0  0  0
   -5.6420    2.1700    1.3540 H   0  0  0  0  0  0  0  0  0  0  0  0
   -4.5290    2.4270    3.5270 H   0  0  0  0  0  0  0  0  0  0  0  0
   -5.6360    1.3010   -0.9400 H   0  0  0  0  0  0  0  0  0  0  0  0
    1.6250    0.2390    4.5560 H   0  0  0  0  0  0  0  0  0  0  0  0
    2.9170   -0.7820    2.7340 H   0  0  0  0  0  0  0  0  0  0  0  0
   -0.5210    1.3360    5.3290 H   0  0  0  0  0  0  0  0  0  0  0  0
    1.9020   -2.0620   -1.8030 H   0  0  0  0  0  0  0  0  0  0  0  0
    2.9080   -1.8880    0.5530 H   0  0  0  0  0  0  0  0  0  0  0  0
   -4.6540   -0.9960   -3.5100 H   0  0  0  0  0  0  0  0  0  0  0  0
    1.9240   -3.9420   -0.2020 H   0  0  0  0  0  0  0  0  0  0  0  0
    0.3990   -3.3960    0.5170 H   0  0  0  0  0  0  0  0  0  0  0  0
    0.4370   -3.9580   -1.1570 H   0  0  0  0  0  0  0  0  0  0  0  0
    3.5390   -0.3860   -1.3160 H   0  0  0  0  0  0  0  0  0  0  0  0
    2.2080    0.7150   -0.9200 H   0  0  0  0  0  0  0  0  0  0  0  0
    3.5360    0.4850    0.2220 H   0  0  0  0  0  0  0  0  0  0  0  0
  1  2  2  0
  1  4  1  0
  1 10  1  0
  2  5  1  0
  2 13  1  0
  3  6  2  0
  3  7  1  0
  3 32  1  0
  4  8  2  0
  4 19  1  0
  5  9  2  0
  5 26  1  0
  6  8  1  0
  6 33  1  0
  7  9  1  0
  7 34  1  0
  7 35  1  0
  8  9  1  0
 10 11  2  0
 10 14  1  0
 11 12  1  0
 11 17  1  0
 12 13  2  0
 12 20  1  0
 13 23  1  0
 14 15  2  0
 14 18  1  0
 15 16  1  0
 15 36  1  0
 16 17  2  0
 16 37  1  0
 17 24  1  0
 18 19  2  0
 18 38  1  0
 19 28  1  0
 20 21  2  0
 20 25  1  0
 21 22  1  0
 21 39  1  0
 22 23  2  0
 22 40  1  0
 23 27  1  0
 24 25  2  0
 25 41  1  0
 26 27  1  0
 26 30  1  0
 26 42  1  6
 27 31  1  0
 27 43  1  1
 28 29  2  0
 28 44  1  0
 30 45  1  0
 30 46  1  0
 30 47  1  0
 31 48  1  0
 31 49  1  0
 31 50  1  0
M  END
