
     RDKit          3D

 53 58  0  0  0  0  0  0  0  0999 V2000
   -6.0370   -1.8410    2.1630 C   0  0  0  0  0  0  0  0  0  0  0  0
   -5.6450   -0.5730    2.5860 C   0  0  0  0  0  0  0  0  0  0  0  0
   -5.1270    0.3410    1.6680 C   0  0  0  0  0  0  0  0  0  0  0  0
   -4.9950   -0.0050    0.3150 C   0  0  0  0  0  0  0  0  0  0  0  0
   -5.3910   -1.2840   -0.0980 C   0  0  0  0  0  0  0  0  0  0  0  0
   -5.9100   -2.1970    0.8220 C   0  0  0  0  0  0  0  0  0  0  0  0
   -2.9330    1.2080   -0.5350 C   0  0  0  0  0  0  0  0  0  0  0  0
   -2.4170    2.3940    0.0640 C   0  0  0  0  0  0  0  0  0  0  0  0
    5.2670   -0.3880   -0.9520 C   0  0  0  0  0  0  0  0  0  0  0  0
   -2.0550    0.1880   -0.9830 C   0  0  0  0  0  0  0  0  0  0  0  0
    5.2430    0.8550   -0.4400 C   0  0  0  0  0  0  0  0  0  0  0  0
   -1.0440    2.6030    0.1920 C   0  0  0  0  0  0  0  0  0  0  0  0
    3.8730   -0.9530   -1.1870 C   0  0  2  0  0  0  0  0  0  0  0  0
    3.3150    2.4840    0.1760 C   0  0  0  0  0  0  0  0  0  0  0  0
    1.9330    2.6490    0.2160 C   0  0  0  0  0  0  0  0  0  0  0  0
    0.4990   -0.5090   -1.1550 C   0  0  0  0  0  0  0  0  0  0  0  0
    3.8520    1.2650   -0.2830 C   0  0  0  0  0  0  0  0  0  0  0  0
   -0.6990    0.3820   -0.8400 C   0  0  0  0  0  0  0  0  0  0  0  0
    3.0280    0.2000   -0.7260 C   0  0  0  0  0  0  0  0  0  0  0  0
   -0.2460    1.5790   -0.2790 C   0  0  0  0  0  0  0  0  0  0  0  0
    1.1730    1.5750   -0.2220 C   0  0  0  0  0  0  0  0  0  0  0  0
    1.6670    0.3580   -0.7100 C   0  0  0  0  0  0  0  0  0  0  0  0
   -0.3320    3.7390    0.8960 C   0  0  0  0  0  0  0  0  0  0  0  0
    1.1880    3.9190    0.5500 C   0  0  0  0  0  0  0  0  0  0  0  0
   -3.3160    3.3140    0.5310 O   0  0  0  0  0  0  0  0  0  0  0  0
    4.1000    3.5290    0.5670 O   0  0  0  0  0  0  0  0  0  0  0  0
    3.6110   -2.2300   -0.3960 C   0  0  0  0  0  0  0  0  0  0  0  0
   -4.4280    0.9880   -0.6760 C   0  0  0  0  0  0  0  0  0  0  0  0
    6.4860   -1.1660   -1.3080 C   0  0  0  0  0  0  0  0  0  0  0  0
   -6.4400   -2.5520    2.8790 H   0  0  0  0  0  0  0  0  0  0  0  0
   -5.7410   -0.2940    3.6320 H   0  0  0  0  0  0  0  0  0  0  0  0
   -4.8210    1.3280    2.0090 H   0  0  0  0  0  0  0  0  0  0  0  0
   -5.2990   -1.5780   -1.1410 H   0  0  0  0  0  0  0  0  0  0  0  0
   -6.2150   -3.1870    0.4920 H   0  0  0  0  0  0  0  0  0  0  0  0
   -2.4420   -0.7310   -1.4110 H   0  0  0  0  0  0  0  0  0  0  0  0
    6.1000    1.4630   -0.2020 H   0  0  0  0  0  0  0  0  0  0  0  0
    3.7180   -1.1210   -2.2590 H   0  0  0  0  0  0  0  0  0  0  0  0
    0.4510   -1.4290   -0.5660 H   0  0  0  0  0  0  0  0  0  0  0  0
    0.5540   -0.7140   -2.2270 H   0  0  0  0  0  0  0  0  0  0  0  0
   -0.8380    4.6900    0.6930 H   0  0  0  0  0  0  0  0  0  0  0  0
   -0.4150    3.5480    1.9740 H   0  0  0  0  0  0  0  0  0  0  0  0
    1.2590    4.5730   -0.3290 H   0  0  0  0  0  0  0  0  0  0  0  0
    1.6740    4.4400    1.3830 H   0  0  0  0  0  0  0  0  0  0  0  0
   -2.8350    4.0400    0.9580 H   0  0  0  0  0  0  0  0  0  0  0  0
    5.0270    3.2580    0.4820 H   0  0  0  0  0  0  0  0  0  0  0  0
    2.5830   -2.5800   -0.5400 H   0  0  0  0  0  0  0  0  0  0  0  0
    3.7600   -2.0810    0.6800 H   0  0  0  0  0  0  0  0  0  0  0  0
    4.2780   -3.0360   -0.7190 H   0  0  0  0  0  0  0  0  0  0  0  0
   -4.6300    0.6500   -1.7020 H   0  0  0  0  0  0  0  0  0  0  0  0
   -4.9820    1.9310   -0.5880 H   0  0  0  0  0  0  0  0  0  0  0  0
    6.5630   -2.0670   -0.6940 H   0  0  0  0  0  0  0  0  0  0  0  0
    7.3960   -0.5770   -1.1540 H   0  0  0  0  0  0  0  0  0  0  0  0
    6.4530   -1.4620   -2.3610 H   0  0  0  0  0  0  0  0  0  0  0  0
  1  2  2  0
  1  6  1  0
  1 30  1  0
  2  3  1  0
  2 31  1  0
  3  4  2  0
  3 32  1  0
  4  5  1  0
  4 28  1  0
  5  6  2  0
  5 33  1  0
  6 34  1  0
  7  8  2  0
  7 10  1  0
  7 28  1  0
  8 12  1  0
  8 25  1  0
  9 11  2  0
  9 13  1  0
  9 29  1  0
 10 18  2  0
 10 35  1  0
 11 17  1  0
 11 36  1  0
 12 20  2  0
 12 23  1  0
 13 19  1  0
 13 27  1  0
 13 37  1  6
 14 15  1  0
 14 17  2  0
 14 26  1  0
 15 21  2  0
 15 24  1  0
 16 18  1  0
 16 22  1  0
 16 38  1  0
 16 39  1  0
 17 19  1  0
 18 20  1  0
 19 22  2  0
 20 21  1  0
 21 22  1  0
 23 24  1  0
 23 40  1  0
 23 41  1  0
 24 42  1  0
 24 43  1  0
 25 44  1  0
 26 45  1  0
 27 46  1  0
 27 47  1  0
 27 48  1  0
 28 49  1  0
 28 50  1  0
 29 51  1  0
 29 52  1  0
 29 53  1  0
M  END
