
     RDKit          3D

 69 78  0  0  0  0  0  0  0  0999 V2000
    2.7050   -2.4070   -0.8760 C   0  0  0  0  0  0  0  0  0  0  0  0
    1.2810   -2.4310   -1.1720 C   0  0  0  0  0  0  0  0  0  0  0  0
    4.4330    3.0210   -0.7090 C   0  0  0  0  0  0  0  0  0  0  0  0
   -0.5040    2.9140   -1.7890 N   0  0  0  0  0  0  0  0  0  0  0  0
    3.2850    3.8790   -1.0160 C   0  0  0  0  0  0  0  0  0  0  0  0
    0.6250    3.7440   -1.5860 C   0  0  0  0  0  0  0  0  0  0  0  0
    3.4090   -1.1880   -0.8090 C   0  0  0  0  0  0  0  0  0  0  0  0
    0.6090   -1.2310   -1.4150 C   0  0  0  0  0  0  0  0  0  0  0  0
    4.3440    1.5810   -0.6960 C   0  0  0  0  0  0  0  0  0  0  0  0
   -0.3660    1.5280   -1.7350 C   0  0  0  0  0  0  0  0  0  0  0  0
    1.9690    3.3160   -1.3050 C   0  0  0  0  0  0  0  0  0  0  0  0
    2.6660   -0.0820   -1.0780 C   0  0  0  0  0  0  0  0  0  0  0  0
    1.3630   -0.1020   -1.3590 C   0  0  0  0  0  0  0  0  0  0  0  0
    3.0740    1.1900   -1.0280 C   0  0  0  0  0  0  0  0  0  0  0  0
    0.9250    1.1530   -1.4990 C   0  0  0  0  0  0  0  0  0  0  0  0
    1.9920    1.9590   -1.2970 C   0  0  0  0  0  0  0  0  0  0  0  0
    4.7470   -0.9290   -0.4490 C   0  0  0  0  0  0  0  0  0  0  0  0
    5.2180    0.4420   -0.3950 C   0  0  0  0  0  0  0  0  0  0  0  0
   -0.7440   -1.0240   -1.6770 C   0  0  0  0  0  0  0  0  0  0  0  0
   -1.2320    0.3420   -1.8240 C   0  0  0  0  0  0  0  0  0  0  0  0
    3.4100   -3.5750   -0.6480 C   0  0  0  0  0  0  0  0  0  0  0  0
    2.6830   -4.7680   -0.7060 C   0  0  0  0  0  0  0  0  0  0  0  0
    1.2820   -4.7740   -0.9690 C   0  0  0  0  0  0  0  0  0  0  0  0
    0.5370   -3.6050   -1.2130 C   0  0  0  0  0  0  0  0  0  0  0  0
    4.9220   -3.5090   -0.4920 C   0  0  0  0  0  0  0  0  0  0  0  0
    5.5180   -2.1470    0.0060 C   0  0  0  0  0  0  0  0  0  0  0  0
   -0.8330   -3.5610   -1.4830 N   0  0  0  0  0  0  0  0  0  0  0  0
   -1.5800   -2.2770   -1.7290 C   0  0  0  0  0  0  0  0  0  0  0  0
   -2.5900    0.4430   -2.0620 O   0  0  0  0  0  0  0  0  0  0  0  0
   -1.6600   -4.7690   -1.4580 C   0  0  0  0  0  0  0  0  0  0  0  0
   -2.0610   -5.1300   -0.0360 C   0  0  0  0  0  0  0  0  0  0  0  0
    3.4500    5.3720   -0.9670 C   0  0  0  0  0  0  0  0  0  0  0  0
   -3.6790    0.0090    2.7040 C   0  0  0  0  0  0  0  0  0  0  0  0
   -4.5720   -0.4050    1.7710 N   0  0  0  0  0  0  0  0  0  0  0  0
   -4.4130    0.0780    0.5190 C   0  0  0  0  0  0  0  0  0  0  0  0
   -3.4160    0.9750    0.1520 C   0  0  0  0  0  0  0  0  0  0  0  0
   -2.5120    1.3840    1.1410 C   0  0  0  0  0  0  0  0  0  0  0  0
   -2.6320    0.8830    2.4390 C   0  0  0  0  0  0  0  0  0  0  0  0
   -1.6940    1.2380    3.5310 C   0  0  0  0  0  0  0  0  0  0  0  0
   -2.0030    1.0080    4.6970 O   0  0  0  0  0  0  0  0  0  0  0  0
   -0.3810    1.8850    3.1750 C   0  0  0  0  0  0  0  0  0  0  0  0
   -3.2760    1.4270   -1.2780 C   0  0  0  0  0  0  0  0  0  0  0  0
    5.3890    3.4800   -0.4610 H   0  0  0  0  0  0  0  0  0  0  0  0
    0.3980    4.8080   -1.6430 H   0  0  0  0  0  0  0  0  0  0  0  0
    6.2420    0.6420   -0.0820 H   0  0  0  0  0  0  0  0  0  0  0  0
    3.1890   -5.7200   -0.5580 H   0  0  0  0  0  0  0  0  0  0  0  0
    0.7980   -5.7460   -0.9860 H   0  0  0  0  0  0  0  0  0  0  0  0
    5.3490   -3.7240   -1.4820 H   0  0  0  0  0  0  0  0  0  0  0  0
    5.2610   -4.3040    0.1830 H   0  0  0  0  0  0  0  0  0  0  0  0
    6.5630   -2.0740   -0.3130 H   0  0  0  0  0  0  0  0  0  0  0  0
    5.5040   -2.1460    1.1040 H   0  0  0  0  0  0  0  0  0  0  0  0
   -2.3720   -2.1950   -0.9750 H   0  0  0  0  0  0  0  0  0  0  0  0
   -2.0480   -2.3390   -2.7190 H   0  0  0  0  0  0  0  0  0  0  0  0
   -1.1580   -5.6090   -1.9490 H   0  0  0  0  0  0  0  0  0  0  0  0
   -2.5740   -4.5990   -2.0410 H   0  0  0  0  0  0  0  0  0  0  0  0
   -2.6290   -4.3170    0.4300 H   0  0  0  0  0  0  0  0  0  0  0  0
   -1.1890   -5.3300    0.5960 H   0  0  0  0  0  0  0  0  0  0  0  0
   -2.6910   -6.0250   -0.0360 H   0  0  0  0  0  0  0  0  0  0  0  0
    4.5010    5.6550   -1.0810 H   0  0  0  0  0  0  0  0  0  0  0  0
    2.8940    5.8480   -1.7820 H   0  0  0  0  0  0  0  0  0  0  0  0
    3.0850    5.7550   -0.0100 H   0  0  0  0  0  0  0  0  0  0  0  0
   -3.8310   -0.4060    3.6980 H   0  0  0  0  0  0  0  0  0  0  0  0
   -5.1340   -0.2950   -0.2060 H   0  0  0  0  0  0  0  0  0  0  0  0
   -1.7220    2.0830    0.8820 H   0  0  0  0  0  0  0  0  0  0  0  0
    0.2900    1.8350    4.0380 H   0  0  0  0  0  0  0  0  0  0  0  0
    0.1010    1.3500    2.3520 H   0  0  0  0  0  0  0  0  0  0  0  0
   -0.5400    2.9340    2.9120 H   0  0  0  0  0  0  0  0  0  0  0  0
   -2.8380    2.4270   -1.3550 H   0  0  0  0  0  0  0  0  0  0  0  0
   -4.2780    1.5280   -1.7120 H   0  0  0  0  0  0  0  0  0  0  0  0
  1  2  2  0
  1  7  1  0
  1 21  1  0
  2  8  1  0
  2 24  1  0
  3  5  2  0
  3  9  1  0
  3 43  1  0
  4  6  1  0
  4 10  2  0
  5 11  1  0
  5 32  1  0
  6 11  2  0
  6 44  1  0
  7 12  2  0
  7 17  1  0
  8 13  2  0
  8 19  1  0
  9 14  2  0
  9 18  1  0
 10 15  1  0
 10 20  1  0
 11 16  1  0
 12 13  1  0
 12 14  1  0
 13 15  1  0
 14 16  1  0
 15 16  2  0
 17 18  2  0
 17 26  1  0
 18 45  1  0
 19 20  2  0
 19 28  1  0
 20 29  1  0
 21 22  2  0
 21 25  1  0
 22 23  1  0
 22 46  1  0
 23 24  2  0
 23 47  1  0
 24 27  1  0
 25 26  1  0
 25 48  1  0
 25 49  1  0
 26 50  1  0
 26 51  1  0
 27 28  1  0
 27 30  1  0
 28 52  1  0
 28 53  1  0
 29 42  1  0
 30 31  1  0
 30 54  1  0
 30 55  1  0
 31 56  1  0
 31 57  1  0
 31 58  1  0
 32 59  1  0
 32 60  1  0
 32 61  1  0
 33 34  2  0
 33 38  1  0
 33 62  1  0
 34 35  1  0
 35 36  2  0
 35 63  1  0
 36 37  1  0
 36 42  1  0
 37 38  2  0
 37 64  1  0
 38 39  1  0
 39 40  2  0
 39 41  1  0
 41 65  1  0
 41 66  1  0
 41 67  1  0
 42 68  1  0
 42 69  1  0
M  END
