
     RDKit          3D

 79 87  0  0  0  0  0  0  0  0999 V2000
    2.6250   -4.3290   -0.0830 C   0  0  0  0  0  0  0  0  0  0  0  0
    2.5710   -3.7340    1.1890 C   0  0  0  0  0  0  0  0  0  0  0  0
    3.4020   -2.6640    1.5200 C   0  0  0  0  0  0  0  0  0  0  0  0
    4.3080   -2.1780    0.5860 C   0  0  0  0  0  0  0  0  0  0  0  0
    4.3800   -2.7590   -0.6790 C   0  0  0  0  0  0  0  0  0  0  0  0
    3.5390   -3.8290   -1.0330 C   0  0  0  0  0  0  0  0  0  0  0  0
    1.6790   -5.4730   -0.3790 C   0  0  0  0  0  0  0  0  0  0  0  0
    3.6490   -4.4100   -2.4170 C   0  0  0  0  0  0  0  0  0  0  0  0
   -0.7650    2.1860   -0.7530 C   0  0  0  0  0  0  0  0  0  0  0  0
    0.2760    1.6310   -1.5160 C   0  0  0  0  0  0  0  0  0  0  0  0
   -1.6650   -2.4430    1.0930 C   0  0  0  0  0  0  0  0  0  0  0  0
   -0.7950   -2.9690    0.1220 C   0  0  0  0  0  0  0  0  0  0  0  0
   -1.5870    1.3050    0.0220 C   0  0  0  0  0  0  0  0  0  0  0  0
    0.5070    0.2330   -1.4630 C   0  0  0  0  0  0  0  0  0  0  0  0
   -1.8860   -1.0280    1.1470 C   0  0  0  0  0  0  0  0  0  0  0  0
   -0.1170   -2.0370   -0.6880 C   0  0  0  0  0  0  0  0  0  0  0  0
   -1.2930   -0.1010    0.1960 C   0  0  0  0  0  0  0  0  0  0  0  0
   -0.2950   -0.6310   -0.6500 C   0  0  0  0  0  0  0  0  0  0  0  0
   -0.9900    3.6020   -0.7830 C   0  0  0  0  0  0  0  0  0  0  0  0
   -0.2160    4.4530   -1.6110 C   0  0  0  0  0  0  0  0  0  0  0  0
    0.7790    3.8590   -2.3990 C   0  0  0  0  0  0  0  0  0  0  0  0
    1.0370    2.4830   -2.3480 C   0  0  0  0  0  0  0  0  0  0  0  0
   -2.2860   -3.3440    2.0000 C   0  0  0  0  0  0  0  0  0  0  0  0
   -2.1110   -4.7260    1.8870 C   0  0  0  0  0  0  0  0  0  0  0  0
   -1.2820   -5.2390    0.9060 C   0  0  0  0  0  0  0  0  0  0  0  0
   -0.6050   -4.3830    0.0250 C   0  0  0  0  0  0  0  0  0  0  0  0
   -1.9730    4.1940    0.0420 C   0  0  0  0  0  0  0  0  0  0  0  0
   -2.1890    5.5770    0.0450 C   0  0  0  0  0  0  0  0  0  0  0  0
   -1.4390    6.4000   -0.7800 C   0  0  0  0  0  0  0  0  0  0  0  0
   -0.4500    5.8580   -1.6110 C   0  0  0  0  0  0  0  0  0  0  0  0
   -2.9230    1.9280    0.4150 C   0  0  0  0  0  0  0  0  0  0  0  0
   -2.7560    3.3270    0.9890 C   0  0  0  0  0  0  0  0  0  0  0  0
    1.6360   -0.3370   -2.3150 C   0  0  0  0  0  0  0  0  0  0  0  0
    2.7200    0.6830   -2.6430 C   0  0  0  0  0  0  0  0  0  0  0  0
    2.1080    1.9270   -3.2530 C   0  0  0  0  0  0  0  0  0  0  0  0
   -2.7300   -0.5210    2.3100 C   0  0  0  0  0  0  0  0  0  0  0  0
   -2.7120   -1.4430    3.5350 C   0  0  2  0  0  0  0  0  0  0  0  0
   -3.1740   -2.8320    3.1060 C   0  0  0  0  0  0  0  0  0  0  0  0
   -3.6040   -0.8910    4.6450 C   0  0  0  0  0  0  0  0  0  0  0  0
    0.3280   -5.0440   -0.9760 C   0  0  0  0  0  0  0  0  0  0  0  0
    0.3550    6.8020   -2.4640 C   0  0  0  0  0  0  0  0  0  0  0  0
    1.8620   -4.0930    1.9330 H   0  0  0  0  0  0  0  0  0  0  0  0
    3.3350   -2.2120    2.5070 H   0  0  0  0  0  0  0  0  0  0  0  0
    4.9550   -1.3430    0.8410 H   0  0  0  0  0  0  0  0  0  0  0  0
    5.0940   -2.3590   -1.3950 H   0  0  0  0  0  0  0  0  0  0  0  0
    1.5230   -6.0570    0.5380 H   0  0  0  0  0  0  0  0  0  0  0  0
    2.1650   -6.1710   -1.0700 H   0  0  0  0  0  0  0  0  0  0  0  0
    4.3600   -3.8480   -3.0320 H   0  0  0  0  0  0  0  0  0  0  0  0
    2.6810   -4.3730   -2.9250 H   0  0  0  0  0  0  0  0  0  0  0  0
    3.9990   -5.4470   -2.3700 H   0  0  0  0  0  0  0  0  0  0  0  0
    0.6010   -2.4380   -1.3950 H   0  0  0  0  0  0  0  0  0  0  0  0
    1.3890    4.4700   -3.0610 H   0  0  0  0  0  0  0  0  0  0  0  0
   -2.6130   -5.4060    2.5720 H   0  0  0  0  0  0  0  0  0  0  0  0
   -1.1480   -6.3160    0.8390 H   0  0  0  0  0  0  0  0  0  0  0  0
   -2.9370    6.0160    0.7010 H   0  0  0  0  0  0  0  0  0  0  0  0
   -1.6180    7.4720   -0.7600 H   0  0  0  0  0  0  0  0  0  0  0  0
   -3.5150    1.3500    1.1130 H   0  0  0  0  0  0  0  0  0  0  0  0
   -3.5380    1.9700   -0.4980 H   0  0  0  0  0  0  0  0  0  0  0  0
   -3.7490    3.7560    1.1670 H   0  0  0  0  0  0  0  0  0  0  0  0
   -2.2290    3.2870    1.9490 H   0  0  0  0  0  0  0  0  0  0  0  0
    1.2060   -0.7440   -3.2390 H   0  0  0  0  0  0  0  0  0  0  0  0
    2.1440   -1.1470   -1.7870 H   0  0  0  0  0  0  0  0  0  0  0  0
    3.2640    0.9480   -1.7250 H   0  0  0  0  0  0  0  0  0  0  0  0
    3.4510    0.2420   -3.3300 H   0  0  0  0  0  0  0  0  0  0  0  0
    1.6640    1.7010   -4.2310 H   0  0  0  0  0  0  0  0  0  0  0  0
    2.9000    2.6690   -3.4090 H   0  0  0  0  0  0  0  0  0  0  0  0
   -2.3500    0.4520    2.6430 H   0  0  0  0  0  0  0  0  0  0  0  0
   -3.7670   -0.4230    1.9660 H   0  0  0  0  0  0  0  0  0  0  0  0
   -1.6840   -1.5060    3.9210 H   0  0  0  0  0  0  0  0  0  0  0  0
   -3.1290   -3.5080    3.9690 H   0  0  0  0  0  0  0  0  0  0  0  0
   -4.2120   -2.8150    2.7510 H   0  0  0  0  0  0  0  0  0  0  0  0
   -3.5880   -1.5470    5.5220 H   0  0  0  0  0  0  0  0  0  0  0  0
   -4.6430   -0.7970    4.3110 H   0  0  0  0  0  0  0  0  0  0  0  0
   -3.2600    0.1000    4.9620 H   0  0  0  0  0  0  0  0  0  0  0  0
   -0.1780   -5.9450   -1.3520 H   0  0  0  0  0  0  0  0  0  0  0  0
    0.4660   -4.4290   -1.8710 H   0  0  0  0  0  0  0  0  0  0  0  0
    0.2360    6.5520   -3.5220 H   0  0  0  0  0  0  0  0  0  0  0  0
    0.0240    7.8400   -2.3380 H   0  0  0  0  0  0  0  0  0  0  0  0
    1.4150    6.7620   -2.1900 H   0  0  0  0  0  0  0  0  0  0  0  0
  1  2  2  0
  1  6  1  0
  1  7  1  0
  2  3  1  0
  2 42  1  0
  3  4  2  0
  3 43  1  0
  4  5  1  0
  4 44  1  0
  5  6  2  0
  5 45  1  0
  6  8  1  0
  7 40  1  0
  7 46  1  0
  7 47  1  0
  8 48  1  0
  8 49  1  0
  8 50  1  0
  9 10  2  0
  9 13  1  0
  9 19  1  0
 10 14  1  0
 10 22  1  0
 11 12  1  0
 11 15  2  0
 11 23  1  0
 12 16  2  0
 12 26  1  0
 13 17  2  0
 13 31  1  0
 14 18  2  0
 14 33  1  0
 15 17  1  0
 15 36  1  0
 16 18  1  0
 16 51  1  0
 17 18  1  0
 19 20  2  0
 19 27  1  0
 20 21  1  0
 20 30  1  0
 21 22  2  0
 21 52  1  0
 22 35  1  0
 23 24  2  0
 23 38  1  0
 24 25  1  0
 24 53  1  0
 25 26  2  0
 25 54  1  0
 26 40  1  0
 27 28  2  0
 27 32  1  0
 28 29  1  0
 28 55  1  0
 29 30  2  0
 29 56  1  0
 30 41  1  0
 31 32  1  0
 31 57  1  0
 31 58  1  0
 32 59  1  0
 32 60  1  0
 33 34  1  0
 33 61  1  0
 33 62  1  0
 34 35  1  0
 34 63  1  0
 34 64  1  0
 35 65  1  0
 35 66  1  0
 36 37  1  0
 36 67  1  0
 36 68  1  0
 37 38  1  0
 37 39  1  0
 37 69  1  1
 38 70  1  0
 38 71  1  0
 39 72  1  0
 39 73  1  0
 39 74  1  0
 40 75  1  0
 40 76  1  0
 41 77  1  0
 41 78  1  0
 41 79  1  0
M  END
