
     RDKit          3D

114127  0  0  0  0  0  0  0  0999 V2000
   -2.1260    1.6950    3.0230 C   0  0  0  0  0  0  0  0  0  0  0  0
   -2.2160    2.5640    1.8970 C   0  0  0  0  0  0  0  0  0  0  0  0
   -0.5470   -1.1850   -0.2880 C   0  0  0  0  0  0  0  0  0  0  0  0
   -1.7200    0.3390    2.8420 C   0  0  0  0  0  0  0  0  0  0  0  0
   -1.8630    2.0910    0.6020 C   0  0  0  0  0  0  0  0  0  0  0  0
   -0.8300   -1.3430    1.0540 C   0  0  0  0  0  0  0  0  0  0  0  0
   -0.9600    0.0790   -0.6310 N   0  0  0  0  0  0  0  0  0  0  0  0
   -1.3410   -0.1110    1.5560 C   0  0  0  0  0  0  0  0  0  0  0  0
   -1.4120    0.7630    0.4810 C   0  0  0  0  0  0  0  0  0  0  0  0
   -2.4260    2.1950    4.3200 C   0  0  0  0  0  0  0  0  0  0  0  0
   -2.8800    3.5210    4.4830 C   0  0  0  0  0  0  0  0  0  0  0  0
   -2.9830    4.3650    3.3710 C   0  0  0  0  0  0  0  0  0  0  0  0
   -2.6630    3.9010    2.0760 C   0  0  0  0  0  0  0  0  0  0  0  0
   -1.6890   -0.6000    4.0280 C   0  0  0  0  0  0  0  0  0  0  0  0
   -1.2350    0.1550    5.2730 C   0  0  1  0  0  0  0  0  0  0  0  0
   -2.2260    1.3000    5.5350 C   0  0  0  0  0  0  0  0  0  0  0  0
   -1.9040    3.0130   -0.5920 C   0  0  0  0  0  0  0  0  0  0  0  0
   -2.9850    4.0610   -0.4310 C   0  0  0  0  0  0  0  0  0  0  0  0
   -2.7820    4.8230    0.8710 C   0  0  0  0  0  0  0  0  0  0  0  0
   -3.4520    5.7570    3.5700 C   0  0  0  0  0  0  0  0  0  0  0  0
   -2.8990    6.7150    3.0470 O   0  0  0  0  0  0  0  0  0  0  0  0
   -3.2200    4.0540    5.8220 C   0  0  0  0  0  0  0  0  0  0  0  0
   -3.7690    3.3830    6.6840 O   0  0  0  0  0  0  0  0  0  0  0  0
   -1.1190   -0.7420    6.5220 C   0  0  0  0  0  0  0  0  0  0  0  0
   -0.1680   -1.9280    6.3350 C   0  0  0  0  0  0  0  0  0  0  0  0
    0.1260   -2.1330   -1.2310 C   0  0  0  0  0  0  0  0  0  0  0  0
    2.6010    1.2020   -3.2240 C   0  0  0  0  0  0  0  0  0  0  0  0
    2.2130    1.6060   -4.5100 C   0  0  0  0  0  0  0  0  0  0  0  0
   -2.7360   -4.1680   -3.7820 C   0  0  0  0  0  0  0  0  0  0  0  0
   -1.3790   -1.6220   -7.6890 C   0  0  0  0  0  0  0  0  0  0  0  0
    2.0180    0.0210   -2.6480 C   0  0  0  0  0  0  0  0  0  0  0  0
   -2.7870   -3.9130   -5.1580 C   0  0  0  0  0  0  0  0  0  0  0  0
   -2.1030   -2.6330   -7.1730 C   0  0  0  0  0  0  0  0  0  0  0  0
   -1.8470   -3.4280   -2.9910 C   0  0  0  0  0  0  0  0  0  0  0  0
    1.2840    0.7760   -5.1680 C   0  0  0  0  0  0  0  0  0  0  0  0
   -0.4780   -0.7410   -6.8760 C   0  0  0  0  0  0  0  0  0  0  0  0
    0.0560   -1.7650   -2.7150 C   0  0  0  0  0  0  0  0  0  0  0  0
   -1.9700   -2.8900   -5.6990 C   0  0  0  0  0  0  0  0  0  0  0  0
    0.9190   -0.7210   -3.2760 C   0  0  0  0  0  0  0  0  0  0  0  0
   -0.9470   -2.4500   -3.5080 C   0  0  0  0  0  0  0  0  0  0  0  0
    0.6400   -0.3590   -4.6120 C   0  0  0  0  0  0  0  0  0  0  0  0
   -0.2880   -1.1050   -5.4080 C   0  0  0  0  0  0  0  0  0  0  0  0
   -1.0630   -2.1550   -4.8810 C   0  0  0  0  0  0  0  0  0  0  0  0
    3.5610    1.9990   -2.5370 C   0  0  0  0  0  0  0  0  0  0  0  0
    4.0920    3.1670   -3.0970 C   0  0  0  0  0  0  0  0  0  0  0  0
    3.7030    3.5580   -4.3650 C   0  0  0  0  0  0  0  0  0  0  0  0
    2.7750    2.7950   -5.0760 C   0  0  0  0  0  0  0  0  0  0  0  0
   -3.5570   -5.1670   -3.2230 C   0  0  0  0  0  0  0  0  0  0  0  0
   -4.4220   -5.9190   -4.0190 C   0  0  0  0  0  0  0  0  0  0  0  0
   -4.4730   -5.6790   -5.3880 C   0  0  0  0  0  0  0  0  0  0  0  0
   -3.6690   -4.6820   -5.9560 C   0  0  0  0  0  0  0  0  0  0  0  0
   -3.7420   -4.4370   -7.3980 C   0  0  0  0  0  0  0  0  0  0  0  0
   -3.0080   -3.4690   -7.9610 C   0  0  0  0  0  0  0  0  0  0  0  0
    2.6620   -0.4660   -1.3530 C   0  0  0  0  0  0  0  0  0  0  0  0
    4.0380    0.1170   -1.0350 C   0  0  0  0  0  0  0  0  0  0  0  0
    4.0000    1.6250   -1.1430 C   0  0  0  0  0  0  0  0  0  0  0  0
    2.4140    3.3010   -6.4280 C   0  0  0  0  0  0  0  0  0  0  0  0
    2.9390    4.2990   -6.9140 O   0  0  0  0  0  0  0  0  0  0  0  0
   -1.3840   -1.2460   -9.1360 C   0  0  0  0  0  0  0  0  0  0  0  0
   -0.7560   -0.2820   -9.5680 O   0  0  0  0  0  0  0  0  0  0  0  0
    4.6750   -1.4020    8.3430 C   0  0  0  0  0  0  0  0  0  0  0  0
    3.6510   -0.6670    8.9280 C   0  0  0  0  0  0  0  0  0  0  0  0
    2.3200   -1.0680    8.7650 C   0  0  0  0  0  0  0  0  0  0  0  0
    1.9940   -2.2090    8.0100 C   0  0  0  0  0  0  0  0  0  0  0  0
    3.0340   -2.9450    7.4200 C   0  0  0  0  0  0  0  0  0  0  0  0
    4.3680   -2.5420    7.5980 C   0  0  0  0  0  0  0  0  0  0  0  0
    2.8340   -4.1630    6.5960 C   0  0  0  0  0  0  0  0  0  0  0  0
    1.8160   -4.4330    5.9720 O   0  0  0  0  0  0  0  0  0  0  0  0
    0.2590   -2.6410    7.9570 S   0  0  0  0  0  0  0  0  0  0  0  0
   -0.6350   -2.2370    1.6310 H   0  0  0  0  0  0  0  0  0  0  0  0
   -0.8820    0.4850   -1.5540 H   0  0  0  0  0  0  0  0  0  0  0  0
   -2.6920   -1.0270    4.1690 H   0  0  0  0  0  0  0  0  0  0  0  0
   -1.0010   -1.4270    3.8210 H   0  0  0  0  0  0  0  0  0  0  0  0
   -0.2420    0.5940    5.0800 H   0  0  0  0  0  0  0  0  0  0  0  0
   -1.8210    1.8850    6.3700 H   0  0  0  0  0  0  0  0  0  0  0  0
   -3.2060    0.8960    5.8290 H   0  0  0  0  0  0  0  0  0  0  0  0
   -0.9220    3.4910   -0.6980 H   0  0  0  0  0  0  0  0  0  0  0  0
   -2.0980    2.4480   -1.5100 H   0  0  0  0  0  0  0  0  0  0  0  0
   -2.9700    4.7540   -1.2790 H   0  0  0  0  0  0  0  0  0  0  0  0
   -3.9710    3.5780   -0.4190 H   0  0  0  0  0  0  0  0  0  0  0  0
   -1.8730    5.4360    0.8170 H   0  0  0  0  0  0  0  0  0  0  0  0
   -3.6420    5.4920    0.9810 H   0  0  0  0  0  0  0  0  0  0  0  0
   -4.3180    5.8930    4.2490 H   0  0  0  0  0  0  0  0  0  0  0  0
   -2.9950    5.1130    6.0100 H   0  0  0  0  0  0  0  0  0  0  0  0
   -2.1150   -1.1160    6.8050 H   0  0  0  0  0  0  0  0  0  0  0  0
   -0.7660   -0.1120    7.3490 H   0  0  0  0  0  0  0  0  0  0  0  0
    0.7310   -1.6190    5.7900 H   0  0  0  0  0  0  0  0  0  0  0  0
   -0.6620   -2.7070    5.7460 H   0  0  0  0  0  0  0  0  0  0  0  0
   -0.2680   -3.1330   -1.0410 H   0  0  0  0  0  0  0  0  0  0  0  0
    1.1540   -2.2920   -0.9200 H   0  0  0  0  0  0  0  0  0  0  0  0
   -1.8780   -3.6470   -1.9240 H   0  0  0  0  0  0  0  0  0  0  0  0
    1.0250    1.0460   -6.1860 H   0  0  0  0  0  0  0  0  0  0  0  0
   -0.9020    0.2710   -6.9120 H   0  0  0  0  0  0  0  0  0  0  0  0
    0.5110   -0.7460   -7.3510 H   0  0  0  0  0  0  0  0  0  0  0  0
    4.8080    3.7730   -2.5470 H   0  0  0  0  0  0  0  0  0  0  0  0
    4.1310    4.4610   -4.7980 H   0  0  0  0  0  0  0  0  0  0  0  0
   -3.5320   -5.3640   -2.1510 H   0  0  0  0  0  0  0  0  0  0  0  0
   -5.0420   -6.6930   -3.5740 H   0  0  0  0  0  0  0  0  0  0  0  0
   -5.1420   -6.2740   -6.0060 H   0  0  0  0  0  0  0  0  0  0  0  0
   -4.4200   -5.0450   -7.9920 H   0  0  0  0  0  0  0  0  0  0  0  0
   -3.1220   -3.3230   -9.0300 H   0  0  0  0  0  0  0  0  0  0  0  0
    2.0010   -0.2420   -0.5130 H   0  0  0  0  0  0  0  0  0  0  0  0
    2.8330   -1.5440   -1.4370 H   0  0  0  0  0  0  0  0  0  0  0  0
    4.3500   -0.1810   -0.0250 H   0  0  0  0  0  0  0  0  0  0  0  0
    4.7780   -0.2910   -1.7390 H   0  0  0  0  0  0  0  0  0  0  0  0
    4.9980    2.0240   -0.9250 H   0  0  0  0  0  0  0  0  0  0  0  0
    3.3010    2.0550   -0.4150 H   0  0  0  0  0  0  0  0  0  0  0  0
    1.6580    2.7570   -7.0080 H   0  0  0  0  0  0  0  0  0  0  0  0
   -1.9740   -1.8670   -9.8220 H   0  0  0  0  0  0  0  0  0  0  0  0
    5.7120   -1.0930    8.4690 H   0  0  0  0  0  0  0  0  0  0  0  0
    3.8790    0.2170    9.5170 H   0  0  0  0  0  0  0  0  0  0  0  0
    1.5400   -0.4880    9.2560 H   0  0  0  0  0  0  0  0  0  0  0  0
    5.1820   -3.1120    7.1520 H   0  0  0  0  0  0  0  0  0  0  0  0
    3.7090   -4.8310    6.5400 H   0  0  0  0  0  0  0  0  0  0  0  0
  1  2  2  0
  1  4  1  0
  1 10  1  0
  2  5  1  0
  2 13  1  0
  3  6  2  0
  3  7  1  0
  3 26  1  0
  4  8  2  0
  4 14  1  0
  5  9  2  0
  5 17  1  0
  6  8  1  0
  6 70  1  0
  7  9  1  0
  7 71  1  0
  8  9  1  0
 10 11  2  0
 10 16  1  0
 11 12  1  0
 11 22  1  0
 12 13  2  0
 12 20  1  0
 13 19  1  0
 14 15  1  0
 14 72  1  0
 14 73  1  0
 15 16  1  0
 15 24  1  0
 15 74  1  6
 16 75  1  0
 16 76  1  0
 17 18  1  0
 17 77  1  0
 17 78  1  0
 18 19  1  0
 18 79  1  0
 18 80  1  0
 19 81  1  0
 19 82  1  0
 20 21  2  0
 20 83  1  0
 22 23  2  0
 22 84  1  0
 24 25  1  0
 24 85  1  0
 24 86  1  0
 25 69  1  0
 25 87  1  0
 25 88  1  0
 26 37  1  0
 26 89  1  0
 26 90  1  0
 27 28  1  0
 27 31  2  0
 27 44  1  0
 28 35  2  0
 28 47  1  0
 29 32  2  0
 29 34  1  0
 29 48  1  0
 30 33  2  0
 30 36  1  0
 30 59  1  0
 31 39  1  0
 31 54  1  0
 32 38  1  0
 32 51  1  0
 33 38  1  0
 33 53  1  0
 34 40  2  0
 34 91  1  0
 35 41  1  0
 35 92  1  0
 36 42  1  0
 36 93  1  0
 36 94  1  0
 37 39  2  0
 37 40  1  0
 38 43  2  0
 39 41  1  0
 40 43  1  0
 41 42  2  0
 42 43  1  0
 44 45  2  0
 44 56  1  0
 45 46  1  0
 45 95  1  0
 46 47  2  0
 46 96  1  0
 47 57  1  0
 48 49  2  0
 48 97  1  0
 49 50  1  0
 49 98  1  0
 50 51  2  0
 50 99  1  0
 51 52  1  0
 52 53  2  0
 52100  1  0
 53101  1  0
 54 55  1  0
 54102  1  0
 54103  1  0
 55 56  1  0
 55104  1  0
 55105  1  0
 56106  1  0
 56107  1  0
 57 58  2  0
 57108  1  0
 59 60  2  0
 59109  1  0
 61 62  2  0
 61 66  1  0
 61110  1  0
 62 63  1  0
 62111  1  0
 63 64  2  0
 63112  1  0
 64 65  1  0
 64 69  1  0
 65 66  2  0
 65 67  1  0
 66113  1  0
 67 68  2  0
 67114  1  0
M  END
