
     RDKit          3D

126139  0  0  0  0  0  0  0  0999 V2000
    5.4320   -1.0150   -0.1320 C   0  0  0  0  0  0  0  0  0  0  0  0
    5.1690    0.2130    0.5100 C   0  0  0  0  0  0  0  0  0  0  0  0
    6.6700    1.5840   -4.1540 C   0  0  0  0  0  0  0  0  0  0  0  0
    6.3520    2.7860   -3.4920 C   0  0  0  0  0  0  0  0  0  0  0  0
    5.9110   -0.9080   -1.4660 C   0  0  0  0  0  0  0  0  0  0  0  0
    5.3020    1.4460   -0.1590 C   0  0  0  0  0  0  0  0  0  0  0  0
    6.5270    0.3650   -3.4720 C   0  0  0  0  0  0  0  0  0  0  0  0
    5.8940    2.7360   -2.1630 C   0  0  0  0  0  0  0  0  0  0  0  0
    6.0610    0.3160   -2.1470 C   0  0  0  0  0  0  0  0  0  0  0  0
    5.7440    1.5110   -1.4870 C   0  0  0  0  0  0  0  0  0  0  0  0
    5.2380   -2.2540    0.6110 C   0  0  0  0  0  0  0  0  0  0  0  0
    4.9070   -2.1170    1.9820 C   0  0  0  0  0  0  0  0  0  0  0  0
    4.6790   -0.9440    2.5780 N   0  0  0  0  0  0  0  0  0  0  0  0
    4.7890    0.1790    1.8420 C   0  0  0  0  0  0  0  0  0  0  0  0
    7.1220    1.6270   -5.4830 C   0  0  0  0  0  0  0  0  0  0  0  0
    7.2550    2.8440   -6.1520 C   0  0  0  0  0  0  0  0  0  0  0  0
    6.9480    4.0320   -5.4980 C   0  0  0  0  0  0  0  0  0  0  0  0
    6.4950    4.0040   -4.1770 C   0  0  0  0  0  0  0  0  0  0  0  0
    5.3390   -3.6010    0.1350 C   0  0  0  0  0  0  0  0  0  0  0  0
    5.2350   -4.7160    0.9790 C   0  0  0  0  0  0  0  0  0  0  0  0
    4.9750   -4.5280    2.3230 C   0  0  0  0  0  0  0  0  0  0  0  0
    4.7930   -3.2350    2.7990 C   0  0  0  0  0  0  0  0  0  0  0  0
    5.4370   -3.9490   -1.2960 C   0  0  0  0  0  0  0  0  0  0  0  0
    6.5120   -4.3220   -1.7520 O   0  0  0  0  0  0  0  0  0  0  0  0
    4.1390   -3.9130   -2.0870 C   0  0  0  0  0  0  0  0  0  0  0  0
    4.3920   -3.7960   -3.5920 C   0  0  0  0  0  0  0  0  0  0  0  0
    1.3360   -0.4500   -3.9720 C   0  0  0  0  0  0  0  0  0  0  0  0
    2.2510   -1.4370   -4.4410 C   0  0  0  0  0  0  0  0  0  0  0  0
   -0.8160   -4.2840   -2.4840 C   0  0  0  0  0  0  0  0  0  0  0  0
    0.2360   -0.8120   -3.1290 C   0  0  0  0  0  0  0  0  0  0  0  0
    2.0870   -2.8060   -4.0900 C   0  0  0  0  0  0  0  0  0  0  0  0
   -1.1320   -2.9490   -2.4380 C   0  0  0  0  0  0  0  0  0  0  0  0
    0.4330   -4.3850   -3.0160 N   0  0  0  0  0  0  0  0  0  0  0  0
   -0.0320   -2.2010   -2.9670 C   0  0  0  0  0  0  0  0  0  0  0  0
    0.9010   -3.1410   -3.4040 C   0  0  0  0  0  0  0  0  0  0  0  0
    1.5350    0.8950   -4.3800 C   0  0  0  0  0  0  0  0  0  0  0  0
    2.6050    1.2620   -5.2100 C   0  0  0  0  0  0  0  0  0  0  0  0
    3.4910    0.3060   -5.6580 C   0  0  0  0  0  0  0  0  0  0  0  0
    3.3160   -1.0180   -5.2720 C   0  0  0  0  0  0  0  0  0  0  0  0
   -0.6440    0.2810   -2.4860 C   0  0  2  0  0  0  0  0  0  0  0  0
    0.0240    1.6670   -2.5840 C   0  0  0  0  0  0  0  0  0  0  0  0
    0.5640    1.9780   -3.9720 C   0  0  2  0  0  0  0  0  0  0  0  0
   -0.9620   -0.0160   -0.9900 C   0  0  0  0  0  0  0  0  0  0  0  0
   -1.6200    1.1050   -0.1750 C   0  0  0  0  0  0  0  0  0  0  0  0
   -0.5410    2.1630   -5.0150 C   0  0  0  0  0  0  0  0  0  0  0  0
    3.1130   -3.8680   -4.4370 C   0  0  0  0  0  0  0  0  0  0  0  0
   -6.3040    2.2530    3.2480 C   0  0  0  0  0  0  0  0  0  0  0  0
   -7.2280    2.1140    4.3380 C   0  0  0  0  0  0  0  0  0  0  0  0
   -3.1160    1.6300    6.5910 C   0  0  0  0  0  0  0  0  0  0  0  0
   -4.9020    2.1690    3.4700 C   0  0  0  0  0  0  0  0  0  0  0  0
   -6.7130    1.8950    5.6660 C   0  0  0  0  0  0  0  0  0  0  0  0
   -3.0760    1.8320    5.2660 C   0  0  0  0  0  0  0  0  0  0  0  0
   -4.5400    1.5100    7.1080 C   0  0  1  0  0  0  0  0  0  0  0  0
   -4.4460    1.9240    4.7670 C   0  0  0  0  0  0  0  0  0  0  0  0
   -5.3310    1.7680    5.8420 C   0  0  0  0  0  0  0  0  0  0  0  0
   -6.7680    2.5010    1.9140 C   0  0  0  0  0  0  0  0  0  0  0  0
   -8.1550    2.5920    1.6580 C   0  0  0  0  0  0  0  0  0  0  0  0
   -9.0580    2.4400    2.7060 C   0  0  0  0  0  0  0  0  0  0  0  0
   -8.6080    2.2080    4.0070 C   0  0  0  0  0  0  0  0  0  0  0  0
   -5.8590    2.6740    0.8340 C   0  0  0  0  0  0  0  0  0  0  0  0
   -6.3660    2.9390   -0.4590 C   0  0  0  0  0  0  0  0  0  0  0  0
   -7.7350    3.0200   -0.6920 C   0  0  0  0  0  0  0  0  0  0  0  0
   -8.6230    2.8430    0.3600 C   0  0  0  0  0  0  0  0  0  0  0  0
   -4.4850    2.5780    1.1080 C   0  0  0  0  0  0  0  0  0  0  0  0
   -4.0140    2.3390    2.3980 C   0  0  0  0  0  0  0  0  0  0  0  0
   -3.4600    2.7540    0.0600 C   0  0  0  0  0  0  0  0  0  0  0  0
   -2.9680    3.8620   -0.1160 O   0  0  0  0  0  0  0  0  0  0  0  0
   -2.9980    1.5200   -0.6850 C   0  0  0  0  0  0  0  0  0  0  0  0
   -9.5690    2.0690    4.9800 O   0  0  0  0  0  0  0  0  0  0  0  0
   -4.7870    0.1230    7.7040 C   0  0  0  0  0  0  0  0  0  0  0  0
   -1.9360    1.5340    7.4950 C   0  0  0  0  0  0  0  0  0  0  0  0
   -7.6210    1.8390    6.8670 C   0  0  0  0  0  0  0  0  0  0  0  0
    6.2230   -1.7950   -2.0070 H   0  0  0  0  0  0  0  0  0  0  0  0
    5.0730    2.3710    0.3700 H   0  0  0  0  0  0  0  0  0  0  0  0
    6.7730   -0.5630   -3.9840 H   0  0  0  0  0  0  0  0  0  0  0  0
    5.6510    3.6630   -1.6490 H   0  0  0  0  0  0  0  0  0  0  0  0
    4.5750    1.0910    2.3930 H   0  0  0  0  0  0  0  0  0  0  0  0
    7.3680    0.7080   -6.0090 H   0  0  0  0  0  0  0  0  0  0  0  0
    7.6010    2.8610   -7.1820 H   0  0  0  0  0  0  0  0  0  0  0  0
    7.0550    4.9820   -6.0150 H   0  0  0  0  0  0  0  0  0  0  0  0
    6.2640    4.9420   -3.6830 H   0  0  0  0  0  0  0  0  0  0  0  0
    5.3490   -5.7240    0.5820 H   0  0  0  0  0  0  0  0  0  0  0  0
    4.8930   -5.3790    2.9950 H   0  0  0  0  0  0  0  0  0  0  0  0
    4.5570   -3.0900    3.8520 H   0  0  0  0  0  0  0  0  0  0  0  0
    3.5380   -3.0640   -1.7410 H   0  0  0  0  0  0  0  0  0  0  0  0
    3.5880   -4.8340   -1.8690 H   0  0  0  0  0  0  0  0  0  0  0  0
    4.9330   -2.8650   -3.7940 H   0  0  0  0  0  0  0  0  0  0  0  0
    5.0590   -4.6070   -3.9160 H   0  0  0  0  0  0  0  0  0  0  0  0
   -1.3710   -5.1620   -2.1810 H   0  0  0  0  0  0  0  0  0  0  0  0
   -2.0720   -2.5600   -2.0820 H   0  0  0  0  0  0  0  0  0  0  0  0
    0.9170   -5.2540   -3.1830 H   0  0  0  0  0  0  0  0  0  0  0  0
    2.7420    2.2980   -5.5110 H   0  0  0  0  0  0  0  0  0  0  0  0
    4.3160    0.5860   -6.3050 H   0  0  0  0  0  0  0  0  0  0  0  0
    4.0340   -1.7340   -5.6670 H   0  0  0  0  0  0  0  0  0  0  0  0
   -1.5840    0.3040   -3.0570 H   0  0  0  0  0  0  0  0  0  0  0  0
    0.8580    1.7180   -1.8680 H   0  0  0  0  0  0  0  0  0  0  0  0
   -0.6830    2.4560   -2.3000 H   0  0  0  0  0  0  0  0  0  0  0  0
    1.1080    2.9310   -3.8920 H   0  0  0  0  0  0  0  0  0  0  0  0
   -1.6220   -0.8840   -0.9070 H   0  0  0  0  0  0  0  0  0  0  0  0
   -0.0290   -0.2990   -0.4790 H   0  0  0  0  0  0  0  0  0  0  0  0
   -0.9510    1.9700   -0.1110 H   0  0  0  0  0  0  0  0  0  0  0  0
   -1.7250    0.7480    0.8590 H   0  0  0  0  0  0  0  0  0  0  0  0
   -1.0980    1.2380   -5.1980 H   0  0  0  0  0  0  0  0  0  0  0  0
   -1.2520    2.9310   -4.6970 H   0  0  0  0  0  0  0  0  0  0  0  0
   -0.1220    2.4780   -5.9770 H   0  0  0  0  0  0  0  0  0  0  0  0
    2.6820   -4.8700   -4.3180 H   0  0  0  0  0  0  0  0  0  0  0  0
    3.3630   -3.8100   -5.5030 H   0  0  0  0  0  0  0  0  0  0  0  0
   -2.1880    1.9530    4.6690 H   0  0  0  0  0  0  0  0  0  0  0  0
   -4.7360    2.3060    7.8350 H   0  0  0  0  0  0  0  0  0  0  0  0
  -10.1230    2.5080    2.5030 H   0  0  0  0  0  0  0  0  0  0  0  0
   -5.6970    3.1000   -1.3020 H   0  0  0  0  0  0  0  0  0  0  0  0
   -8.1070    3.2320   -1.6910 H   0  0  0  0  0  0  0  0  0  0  0  0
   -9.6900    2.9200    0.1590 H   0  0  0  0  0  0  0  0  0  0  0  0
   -2.9410    2.3020    2.5600 H   0  0  0  0  0  0  0  0  0  0  0  0
   -2.9820    1.7750   -1.7490 H   0  0  0  0  0  0  0  0  0  0  0  0
   -3.7200    0.7030   -0.5600 H   0  0  0  0  0  0  0  0  0  0  0  0
  -10.4510    2.1480    4.5860 H   0  0  0  0  0  0  0  0  0  0  0  0
   -4.4860   -0.6720    7.0160 H   0  0  0  0  0  0  0  0  0  0  0  0
   -5.8370   -0.0390    7.9540 H   0  0  0  0  0  0  0  0  0  0  0  0
   -4.2120   -0.0060    8.6280 H   0  0  0  0  0  0  0  0  0  0  0  0
   -1.9620    2.3340    8.2390 H   0  0  0  0  0  0  0  0  0  0  0  0
   -1.9180    0.5730    8.0110 H   0  0  0  0  0  0  0  0  0  0  0  0
   -0.9990    1.6220    6.9370 H   0  0  0  0  0  0  0  0  0  0  0  0
   -7.0740    1.7890    7.8110 H   0  0  0  0  0  0  0  0  0  0  0  0
   -8.2240    2.7490    6.9350 H   0  0  0  0  0  0  0  0  0  0  0  0
   -8.2630    0.9520    6.8210 H   0  0  0  0  0  0  0  0  0  0  0  0
  1  2  1  0
  1  5  2  0
  1 11  1  0
  2  6  2  0
  2 14  1  0
  3  4  2  0
  3  7  1  0
  3 15  1  0
  4  8  1  0
  4 18  1  0
  5  9  1  0
  5 73  1  0
  6 10  1  0
  6 74  1  0
  7  9  2  0
  7 75  1  0
  8 10  2  0
  8 76  1  0
  9 10  1  0
 11 12  2  0
 11 19  1  0
 12 13  1  0
 12 22  1  0
 13 14  2  0
 14 77  1  0
 15 16  2  0
 15 78  1  0
 16 17  1  0
 16 79  1  0
 17 18  2  0
 17 80  1  0
 18 81  1  0
 19 20  2  0
 19 23  1  0
 20 21  1  0
 20 82  1  0
 21 22  2  0
 21 83  1  0
 22 84  1  0
 23 24  2  0
 23 25  1  0
 25 26  1  0
 25 85  1  0
 25 86  1  0
 26 46  1  0
 26 87  1  0
 26 88  1  0
 27 28  2  0
 27 30  1  0
 27 36  1  0
 28 31  1  0
 28 39  1  0
 29 32  2  0
 29 33  1  0
 29 89  1  0
 30 34  2  0
 30 40  1  0
 31 35  2  0
 31 46  1  0
 32 34  1  0
 32 90  1  0
 33 35  1  0
 33 91  1  0
 34 35  1  0
 36 37  2  0
 36 42  1  0
 37 38  1  0
 37 92  1  0
 38 39  2  0
 38 93  1  0
 39 94  1  0
 40 41  1  0
 40 43  1  0
 40 95  1  6
 41 42  1  0
 41 96  1  0
 41 97  1  0
 42 45  1  0
 42 98  1  1
 43 44  1  0
 43 99  1  0
 43100  1  0
 44 68  1  0
 44101  1  0
 44102  1  0
 45103  1  0
 45104  1  0
 45105  1  0
 46106  1  0
 46107  1  0
 47 48  2  0
 47 50  1  0
 47 56  1  0
 48 51  1  0
 48 59  1  0
 49 52  2  0
 49 53  1  0
 49 71  1  0
 50 54  2  0
 50 65  1  0
 51 55  2  0
 51 72  1  0
 52 54  1  0
 52108  1  0
 53 55  1  0
 53 70  1  0
 53109  1  1
 54 55  1  0
 56 57  2  0
 56 60  1  0
 57 58  1  0
 57 63  1  0
 58 59  2  0
 58110  1  0
 59 69  1  0
 60 61  2  0
 60 64  1  0
 61 62  1  0
 61111  1  0
 62 63  2  0
 62112  1  0
 63113  1  0
 64 65  2  0
 64 66  1  0
 65114  1  0
 66 67  2  0
 66 68  1  0
 68115  1  0
 68116  1  0
 69117  1  0
 70118  1  0
 70119  1  0
 70120  1  0
 71121  1  0
 71122  1  0
 71123  1  0
 72124  1  0
 72125  1  0
 72126  1  0
M  END
