
     RDKit          3D

 30 31  0  0  0  0  0  0  0  0999 V2000
    2.3360    1.8820    4.2180 N   0  0  0  0  0  0  0  0  0  0  0  0
    3.0750    2.8730    3.6970 C   0  0  0  0  0  0  0  0  0  0  0  0
    2.7960    3.5530    2.5780 N   0  0  0  0  0  0  0  0  0  0  0  0
    1.6550    3.1890    1.9380 C   0  0  0  0  0  0  0  0  0  0  0  0
    0.8190    2.1750    2.3690 C   0  0  0  0  0  0  0  0  0  0  0  0
    1.2080    1.5680    3.5440 C   0  0  0  0  0  0  0  0  0  0  0  0
    1.3910    3.9890    0.7160 C   0  0  0  0  0  0  0  0  0  0  0  0
    0.5560    3.7040   -0.1340 O   0  0  0  0  0  0  0  0  0  0  0  0
   -0.3620    1.8250    1.7980 O   0  0  0  0  0  0  0  0  0  0  0  0
   -2.0460   -2.1060   -3.1220 C   0  0  0  0  0  0  0  0  0  0  0  0
   -3.1440   -1.7830   -2.3300 C   0  0  0  0  0  0  0  0  0  0  0  0
   -2.9520   -1.0470   -1.1590 C   0  0  0  0  0  0  0  0  0  0  0  0
   -1.6670   -0.6280   -0.7770 C   0  0  0  0  0  0  0  0  0  0  0  0
   -0.5650   -0.9640   -1.5770 C   0  0  0  0  0  0  0  0  0  0  0  0
   -0.7640   -1.6990   -2.7470 C   0  0  0  0  0  0  0  0  0  0  0  0
   -1.5290    0.1600    0.4870 C   0  0  0  0  0  0  0  0  0  0  0  0
   -2.4930    0.2310    1.2490 O   0  0  0  0  0  0  0  0  0  0  0  0
   -0.1890    0.8230    0.7910 C   0  0  0  0  0  0  0  0  0  0  0  0
   -2.2110   -2.8260   -4.2700 O   0  0  0  0  0  0  0  0  0  0  0  0
    0.2970   -2.0330   -3.5430 O   0  0  0  0  0  0  0  0  0  0  0  0
    3.9790    3.1460    4.2320 H   0  0  0  0  0  0  0  0  0  0  0  0
    0.6000    0.7900    3.9980 H   0  0  0  0  0  0  0  0  0  0  0  0
    2.0380    4.8750    0.5990 H   0  0  0  0  0  0  0  0  0  0  0  0
   -4.1480   -2.0890   -2.6050 H   0  0  0  0  0  0  0  0  0  0  0  0
   -3.8140   -0.7960   -0.5430 H   0  0  0  0  0  0  0  0  0  0  0  0
    0.4430   -0.6790   -1.2980 H   0  0  0  0  0  0  0  0  0  0  0  0
    0.4970    0.0380    1.1320 H   0  0  0  0  0  0  0  0  0  0  0  0
    0.1940    1.2910   -0.1190 H   0  0  0  0  0  0  0  0  0  0  0  0
   -3.1550   -3.0170   -4.3970 H   0  0  0  0  0  0  0  0  0  0  0  0
    1.0960   -1.5760   -3.2390 H   0  0  0  0  0  0  0  0  0  0  0  0
  1  2  2  0
  1  6  1  0
  2  3  1  0
  2 21  1  0
  3  4  2  0
  4  5  1  0
  4  7  1  0
  5  6  2  0
  5  9  1  0
  6 22  1  0
  7  8  2  0
  7 23  1  0
  9 18  1  0
 10 11  2  0
 10 15  1  0
 10 19  1  0
 11 12  1  0
 11 24  1  0
 12 13  2  0
 12 25  1  0
 13 14  1  0
 13 16  1  0
 14 15  2  0
 14 26  1  0
 15 20  1  0
 16 17  2  0
 16 18  1  0
 18 27  1  0
 18 28  1  0
 19 29  1  0
 20 30  1  0
M  END
