
     RDKit          3D

159179  0  0  0  0  0  0  0  0999 V2000
   -0.9270   -0.9560    1.7050 C   0  0  0  0  0  0  0  0  0  0  0  0
   -2.2970   -0.5960    1.8340 C   0  0  0  0  0  0  0  0  0  0  0  0
    1.4060   -2.4060    9.5110 C   0  0  0  0  0  0  0  0  0  0  0  0
   -4.8110   -0.4750    6.8880 C   0  0  0  0  0  0  0  0  0  0  0  0
   -0.1930   -1.4220    2.8390 C   0  0  0  0  0  0  0  0  0  0  0  0
    0.2010   -2.2060   10.1460 C   0  0  0  0  0  0  0  0  0  0  0  0
   -4.1240   -0.7840    8.0570 C   0  0  0  0  0  0  0  0  0  0  0  0
   -2.8990   -0.5950    3.1180 C   0  0  0  0  0  0  0  0  0  0  0  0
    1.2200   -2.1600    8.1780 N   0  0  0  0  0  0  0  0  0  0  0  0
   -4.1580   -0.5070    5.6510 C   0  0  0  0  0  0  0  0  0  0  0  0
   -2.1040   -1.4660    9.1990 C   0  0  0  0  0  0  0  0  0  0  0  0
    0.0180   -1.4260    5.4150 C   0  0  0  0  0  0  0  0  0  0  0  0
   -0.7450   -1.8170    9.1600 C   0  0  0  0  0  0  0  0  0  0  0  0
   -0.7880   -1.2790    4.1380 C   0  0  0  0  0  0  0  0  0  0  0  0
   -2.7740   -1.1300    8.0110 C   0  0  0  0  0  0  0  0  0  0  0  0
   -2.1480   -0.8910    4.2820 C   0  0  0  0  0  0  0  0  0  0  0  0
   -0.0880   -1.8030    7.9320 C   0  0  0  0  0  0  0  0  0  0  0  0
   -2.7850   -0.8410    5.5630 C   0  0  0  0  0  0  0  0  0  0  0  0
   -0.7350   -1.4790    6.7170 C   0  0  0  0  0  0  0  0  0  0  0  0
   -2.0990   -1.1480    6.7630 C   0  0  0  0  0  0  0  0  0  0  0  0
   -4.2700   -0.2750    3.2410 C   0  0  0  0  0  0  0  0  0  0  0  0
   -4.8810   -0.2320    4.4940 C   0  0  0  0  0  0  0  0  0  0  0  0
   -0.3310   -0.8350    0.4300 C   0  0  0  0  0  0  0  0  0  0  0  0
   -1.0730   -0.4370   -0.6830 C   0  0  0  0  0  0  0  0  0  0  0  0
   -2.4310   -0.1880   -0.5600 C   0  0  0  0  0  0  0  0  0  0  0  0
   -3.0800   -0.2700    0.6850 C   0  0  0  0  0  0  0  0  0  0  0  0
   -4.4720   -0.0440    0.8250 C   0  0  0  0  0  0  0  0  0  0  0  0
   -5.0380   -0.0260    2.1050 C   0  0  0  0  0  0  0  0  0  0  0  0
    1.1700   -2.2090    2.5900 C   0  0  2  0  0  0  0  0  0  0  0  0
    1.4430   -2.3590    1.0580 C   0  0  0  0  0  0  0  0  0  0  0  0
    1.1370   -1.1040    0.2660 C   0  0  0  0  0  0  0  0  0  0  0  0
    0.9690   -3.6590    3.1890 C   0  0  0  0  0  0  0  0  0  0  0  0
    1.5240   -4.8600    2.4190 C   0  0  0  0  0  0  0  0  0  0  0  0
    2.3670   -1.4080    3.2300 C   0  0  0  0  0  0  0  0  0  0  0  0
   -5.4310    0.0650   -0.3480 C   0  0  0  0  0  0  0  0  0  0  0  0
   -1.1850    3.0420   -3.8310 C   0  0  0  0  0  0  0  0  0  0  0  0
   -2.5580    3.3380   -3.9270 C   0  0  0  0  0  0  0  0  0  0  0  0
   -1.9200   -1.3550   -6.1250 C   0  0  0  0  0  0  0  0  0  0  0  0
   -3.3160   -1.1860   -6.1510 C   0  0  0  0  0  0  0  0  0  0  0  0
   -0.7120    1.8420   -4.4280 C   0  0  0  0  0  0  0  0  0  0  0  0
   -3.4270    2.4470   -4.6340 C   0  0  0  0  0  0  0  0  0  0  0  0
   -1.1200   -0.3300   -5.5710 C   0  0  0  0  0  0  0  0  0  0  0  0
   -3.8040    0.0380   -5.5660 C   0  0  0  0  0  0  0  0  0  0  0  0
   -1.5990    0.8920   -5.0330 C   0  0  0  0  0  0  0  0  0  0  0  0
   -2.9850    1.1410   -5.0860 C   0  0  0  0  0  0  0  0  0  0  0  0
   -0.3090    3.9380   -3.1360 C   0  0  0  0  0  0  0  0  0  0  0  0
   -0.8150    5.0600   -2.4430 C   0  0  0  0  0  0  0  0  0  0  0  0
   -2.1790    5.3440   -2.5720 C   0  0  0  0  0  0  0  0  0  0  0  0
   -3.0380    4.5180   -3.3120 C   0  0  0  0  0  0  0  0  0  0  0  0
   -1.3480   -2.5490   -6.6360 C   0  0  0  0  0  0  0  0  0  0  0  0
   -2.1110   -3.5690   -7.1830 C   0  0  0  0  0  0  0  0  0  0  0  0
   -3.4830   -3.4310   -7.2150 C   0  0  0  0  0  0  0  0  0  0  0  0
   -4.0750   -2.2680   -6.7170 C   0  0  0  0  0  0  0  0  0  0  0  0
    1.0890    3.7490   -3.1440 C   0  0  0  0  0  0  0  0  0  0  0  0
    1.9520    4.5920   -2.4250 C   0  0  0  0  0  0  0  0  0  0  0  0
    1.4470    5.6460   -1.6680 C   0  0  0  0  0  0  0  0  0  0  0  0
    0.0690    5.8710   -1.6890 C   0  0  0  0  0  0  0  0  0  0  0  0
    0.7700    1.5170   -4.2520 C   0  0  0  0  0  0  0  0  0  0  0  0
    1.6770    2.7260   -4.0700 C   0  0  0  0  0  0  0  0  0  0  0  0
   -4.8010    3.0270   -5.0040 C   0  0  1  0  0  0  0  0  0  0  0  0
   -5.3850    3.8090   -3.8260 C   0  0  0  0  0  0  0  0  0  0  0  0
   -4.4780    4.9610   -3.4290 C   0  0  0  0  0  0  0  0  0  0  0  0
   -4.7120    3.8500   -6.2840 C   0  0  0  0  0  0  0  0  0  0  0  0
   -5.3210    4.8980   -6.4790 O   0  0  0  0  0  0  0  0  0  0  0  0
   -5.2360    0.0240   -5.2040 C   0  0  0  0  0  0  0  0  0  0  0  0
   -6.0760    0.0660   -6.1000 O   0  0  0  0  0  0  0  0  0  0  0  0
   -5.5760   -0.0590   -3.7290 C   0  0  0  0  0  0  0  0  0  0  0  0
   -0.3910    6.9240   -0.9360 O   0  0  0  0  0  0  0  0  0  0  0  0
    0.0000   -2.7890   -6.5960 O   0  0  0  0  0  0  0  0  0  0  0  0
   -5.4400   -2.2760   -6.8460 O   0  0  0  0  0  0  0  0  0  0  0  0
   -6.3260   -1.3370   -3.3920 C   0  0  0  0  0  0  0  0  0  0  0  0
   -6.8710   -1.3520   -1.9590 C   0  0  0  0  0  0  0  0  0  0  0  0
   -5.7980   -1.3400   -0.8650 C   0  0  0  0  0  0  0  0  0  0  0  0
    2.3710    6.5350   -0.8890 C   0  0  0  0  0  0  0  0  0  0  0  0
    6.7910    0.1340    1.9360 C   0  0  0  0  0  0  0  0  0  0  0  0
    7.6940   -0.9520    1.9190 C   0  0  0  0  0  0  0  0  0  0  0  0
    4.1130   -3.2440    3.6730 C   0  0  0  0  0  0  0  0  0  0  0  0
    5.4220   -0.0800    2.3220 C   0  0  0  0  0  0  0  0  0  0  0  0
    7.2940   -2.2130    2.3610 C   0  0  0  0  0  0  0  0  0  0  0  0
    3.7590   -2.0040    3.1700 C   0  0  0  0  0  0  0  0  0  0  0  0
    5.4080   -3.5010    3.3380 N   0  0  0  0  0  0  0  0  0  0  0  0
    5.0050   -1.3820    2.7400 C   0  0  0  0  0  0  0  0  0  0  0  0
    5.9780   -2.3830    2.7880 C   0  0  0  0  0  0  0  0  0  0  0  0
    7.2830    1.4200    1.5700 C   0  0  0  0  0  0  0  0  0  0  0  0
    8.6180    1.5760    1.1200 C   0  0  0  0  0  0  0  0  0  0  0  0
    9.4650    0.4680    1.0690 C   0  0  0  0  0  0  0  0  0  0  0  0
    9.0090   -0.7800    1.4810 C   0  0  0  0  0  0  0  0  0  0  0  0
    6.4800    2.5730    1.6880 C   0  0  0  0  0  0  0  0  0  0  0  0
    6.9830    3.8360    1.3390 C   0  0  0  0  0  0  0  0  0  0  0  0
    8.2830    3.9690    0.8700 C   0  0  0  0  0  0  0  0  0  0  0  0
    9.1000    2.8450    0.7630 C   0  0  0  0  0  0  0  0  0  0  0  0
    4.4810    1.1000    2.2070 C   0  0  0  0  0  0  0  0  0  0  0  0
    5.1380    2.4720    2.3550 C   0  0  0  0  0  0  0  0  0  0  0  0
    2.3770   -2.6960    9.8920 H   0  0  0  0  0  0  0  0  0  0  0  0
   -5.8670   -0.2190    6.9570 H   0  0  0  0  0  0  0  0  0  0  0  0
    0.0220   -2.3210   11.2060 H   0  0  0  0  0  0  0  0  0  0  0  0
   -4.6600   -0.7610    9.0040 H   0  0  0  0  0  0  0  0  0  0  0  0
    1.9420   -2.2190    7.4720 H   0  0  0  0  0  0  0  0  0  0  0  0
   -2.6220   -1.4620   10.1520 H   0  0  0  0  0  0  0  0  0  0  0  0
    0.6680   -0.5440    5.4900 H   0  0  0  0  0  0  0  0  0  0  0  0
    0.6300   -2.3210    5.3830 H   0  0  0  0  0  0  0  0  0  0  0  0
   -5.9390    0.0140    4.5680 H   0  0  0  0  0  0  0  0  0  0  0  0
   -0.6020   -0.3320   -1.6570 H   0  0  0  0  0  0  0  0  0  0  0  0
   -2.9680    0.0960   -1.4600 H   0  0  0  0  0  0  0  0  0  0  0  0
   -6.1070    0.1570    2.2100 H   0  0  0  0  0  0  0  0  0  0  0  0
    0.8130   -3.1550    0.6410 H   0  0  0  0  0  0  0  0  0  0  0  0
    2.4800   -2.6570    0.8670 H   0  0  0  0  0  0  0  0  0  0  0  0
    1.7200   -0.2390    0.5990 H   0  0  0  0  0  0  0  0  0  0  0  0
    1.3820   -1.2820   -0.7860 H   0  0  0  0  0  0  0  0  0  0  0  0
    1.3710   -3.7150    4.2050 H   0  0  0  0  0  0  0  0  0  0  0  0
   -0.1060   -3.8640    3.2990 H   0  0  0  0  0  0  0  0  0  0  0  0
    1.5780   -5.7290    3.0830 H   0  0  0  0  0  0  0  0  0  0  0  0
    0.8690   -5.1380    1.5860 H   0  0  0  0  0  0  0  0  0  0  0  0
    2.5280   -4.6860    2.0230 H   0  0  0  0  0  0  0  0  0  0  0  0
    2.3710   -0.4290    2.7530 H   0  0  0  0  0  0  0  0  0  0  0  0
    2.2050   -1.2040    4.2860 H   0  0  0  0  0  0  0  0  0  0  0  0
   -6.3470    0.5750   -0.0250 H   0  0  0  0  0  0  0  0  0  0  0  0
   -5.0150    0.7080   -1.1240 H   0  0  0  0  0  0  0  0  0  0  0  0
   -0.0490   -0.5100   -5.5750 H   0  0  0  0  0  0  0  0  0  0  0  0
   -2.5950    6.2500   -2.1360 H   0  0  0  0  0  0  0  0  0  0  0  0
   -1.6390   -4.4660   -7.5710 H   0  0  0  0  0  0  0  0  0  0  0  0
   -4.1020   -4.2200   -7.6320 H   0  0  0  0  0  0  0  0  0  0  0  0
    3.0300    4.4330   -2.4750 H   0  0  0  0  0  0  0  0  0  0  0  0
    1.1660    0.9860   -5.1220 H   0  0  0  0  0  0  0  0  0  0  0  0
    0.8620    0.8570   -3.3800 H   0  0  0  0  0  0  0  0  0  0  0  0
    2.6570    2.3860   -3.7100 H   0  0  0  0  0  0  0  0  0  0  0  0
    1.8410    3.2100   -5.0420 H   0  0  0  0  0  0  0  0  0  0  0  0
   -5.5280    2.2630   -5.2410 H   0  0  0  0  0  0  0  0  0  0  0  0
   -5.4970    3.1360   -2.9670 H   0  0  0  0  0  0  0  0  0  0  0  0
   -6.3830    4.1910   -4.0650 H   0  0  0  0  0  0  0  0  0  0  0  0
   -4.8300    5.3780   -2.4790 H   0  0  0  0  0  0  0  0  0  0  0  0
   -4.5220    5.7590   -4.1770 H   0  0  0  0  0  0  0  0  0  0  0  0
   -4.1220    3.3960   -7.1000 H   0  0  0  0  0  0  0  0  0  0  0  0
   -6.1780    0.8170   -3.4710 H   0  0  0  0  0  0  0  0  0  0  0  0
   -4.6510   -0.0120   -3.1480 H   0  0  0  0  0  0  0  0  0  0  0  0
   -1.2630    6.6780   -0.5870 H   0  0  0  0  0  0  0  0  0  0  0  0
    0.3190   -2.5640   -5.7070 H   0  0  0  0  0  0  0  0  0  0  0  0
   -5.7910   -1.3610   -6.8840 H   0  0  0  0  0  0  0  0  0  0  0  0
   -7.1690   -1.4620   -4.0830 H   0  0  0  0  0  0  0  0  0  0  0  0
   -5.6710   -2.2040   -3.5480 H   0  0  0  0  0  0  0  0  0  0  0  0
   -7.5840   -0.5290   -1.8130 H   0  0  0  0  0  0  0  0  0  0  0  0
   -7.4490   -2.2820   -1.8520 H   0  0  0  0  0  0  0  0  0  0  0  0
   -6.1960   -1.9150   -0.0140 H   0  0  0  0  0  0  0  0  0  0  0  0
   -4.9040   -1.8780   -1.2020 H   0  0  0  0  0  0  0  0  0  0  0  0
    3.3910    6.1390   -0.8700 H   0  0  0  0  0  0  0  0  0  0  0  0
    2.0360    6.6190    0.1500 H   0  0  0  0  0  0  0  0  0  0  0  0
    2.3990    7.5310   -1.3440 H   0  0  0  0  0  0  0  0  0  0  0  0
    3.5440   -4.0010    4.1910 H   0  0  0  0  0  0  0  0  0  0  0  0
    7.9900   -3.0490    2.3830 H   0  0  0  0  0  0  0  0  0  0  0  0
    5.8980   -4.3670    3.5230 H   0  0  0  0  0  0  0  0  0  0  0  0
   10.4940    0.5670    0.7350 H   0  0  0  0  0  0  0  0  0  0  0  0
    9.7020   -1.6190    1.4630 H   0  0  0  0  0  0  0  0  0  0  0  0
    6.3690    4.7260    1.4620 H   0  0  0  0  0  0  0  0  0  0  0  0
    8.6820    4.9490    0.6190 H   0  0  0  0  0  0  0  0  0  0  0  0
   10.1250    2.9710    0.4220 H   0  0  0  0  0  0  0  0  0  0  0  0
    3.9680    1.0380    1.2350 H   0  0  0  0  0  0  0  0  0  0  0  0
    3.7160    1.0450    2.9850 H   0  0  0  0  0  0  0  0  0  0  0  0
    4.4540    3.2350    1.9680 H   0  0  0  0  0  0  0  0  0  0  0  0
    5.2880    2.6840    3.4250 H   0  0  0  0  0  0  0  0  0  0  0  0
  1  2  2  0
  1  5  1  0
  1 23  1  0
  2  8  1  0
  2 26  1  0
  3  6  2  0
  3  9  1  0
  3 94  1  0
  4  7  1  0
  4 10  2  0
  4 95  1  0
  5 14  2  0
  5 29  1  0
  6 13  1  0
  6 96  1  0
  7 15  2  0
  7 97  1  0
  8 16  2  0
  8 21  1  0
  9 17  1  0
  9 98  1  0
 10 18  1  0
 10 22  1  0
 11 13  2  0
 11 15  1  0
 11 99  1  0
 12 14  1  0
 12 19  1  0
 12100  1  0
 12101  1  0
 13 17  1  0
 14 16  1  0
 15 20  1  0
 16 18  1  0
 17 19  2  0
 18 20  2  0
 19 20  1  0
 21 22  2  0
 21 28  1  0
 22102  1  0
 23 24  2  0
 23 31  1  0
 24 25  1  0
 24103  1  0
 25 26  2  0
 25104  1  0
 26 27  1  0
 27 28  2  0
 27 35  1  0
 28105  1  0
 29 30  1  0
 29 32  1  1
 29 34  1  0
 30 31  1  0
 30106  1  0
 30107  1  0
 31108  1  0
 31109  1  0
 32 33  1  0
 32110  1  0
 32111  1  0
 33112  1  0
 33113  1  0
 33114  1  0
 34 80  1  0
 34115  1  0
 34116  1  0
 35 73  1  0
 35117  1  0
 35118  1  0
 36 37  2  0
 36 40  1  0
 36 46  1  0
 37 41  1  0
 37 49  1  0
 38 39  1  0
 38 42  2  0
 38 50  1  0
 39 43  2  0
 39 53  1  0
 40 44  2  0
 40 58  1  0
 41 45  2  0
 41 60  1  0
 42 44  1  0
 42119  1  0
 43 45  1  0
 43 65  1  0
 44 45  1  0
 46 47  2  0
 46 54  1  0
 47 48  1  0
 47 57  1  0
 48 49  2  0
 48120  1  0
 49 62  1  0
 50 51  2  0
 50 69  1  0
 51 52  1  0
 51121  1  0
 52 53  2  0
 52122  1  0
 53 70  1  0
 54 55  2  0
 54 59  1  0
 55 56  1  0
 55123  1  0
 56 57  2  0
 56 74  1  0
 57 68  1  0
 58 59  1  0
 58124  1  0
 58125  1  0
 59126  1  0
 59127  1  0
 60 61  1  0
 60 63  1  0
 60128  1  6
 61 62  1  0
 61129  1  0
 61130  1  0
 62131  1  0
 62132  1  0
 63 64  2  0
 63133  1  0
 65 66  2  0
 65 67  1  0
 67 71  1  0
 67134  1  0
 67135  1  0
 68136  1  0
 69137  1  0
 70138  1  0
 71 72  1  0
 71139  1  0
 71140  1  0
 72 73  1  0
 72141  1  0
 72142  1  0
 73143  1  0
 73144  1  0
 74145  1  0
 74146  1  0
 74147  1  0
 75 76  2  0
 75 78  1  0
 75 84  1  0
 76 79  1  0
 76 87  1  0
 77 80  2  0
 77 81  1  0
 77148  1  0
 78 82  2  0
 78 92  1  0
 79 83  2  0
 79149  1  0
 80 82  1  0
 81 83  1  0
 81150  1  0
 82 83  1  0
 84 85  2  0
 84 88  1  0
 85 86  1  0
 85 91  1  0
 86 87  2  0
 86151  1  0
 87152  1  0
 88 89  2  0
 88 93  1  0
 89 90  1  0
 89153  1  0
 90 91  2  0
 90154  1  0
 91155  1  0
 92 93  1  0
 92156  1  0
 92157  1  0
 93158  1  0
 93159  1  0
M  END
