
     RDKit          3D

164180  0  0  0  0  0  0  0  0999 V2000
    3.5100   10.5690   -2.8120 C   0  0  0  0  0  0  0  0  0  0  0  0
    4.4010   10.2040   -1.7470 C   0  0  0  0  0  0  0  0  0  0  0  0
    4.7460    6.4440   -4.5820 C   0  0  0  0  0  0  0  0  0  0  0  0
    3.3660    9.6770   -3.8990 C   0  0  0  0  0  0  0  0  0  0  0  0
    4.9680    8.8760   -1.7670 C   0  0  0  0  0  0  0  0  0  0  0  0
    3.9890    7.4720   -4.9810 C   0  0  0  0  0  0  0  0  0  0  0  0
    5.3960    6.6610   -3.2070 C   0  0  2  0  0  0  0  0  0  0  0  0
    4.0360    8.4690   -3.9330 C   0  0  0  0  0  0  0  0  0  0  0  0
    4.8380    8.0410   -2.8770 C   0  0  0  0  0  0  0  0  0  0  0  0
    2.7760   11.8110   -2.7790 C   0  0  0  0  0  0  0  0  0  0  0  0
    2.9960   12.7110   -1.7160 C   0  0  0  0  0  0  0  0  0  0  0  0
    3.9450   12.4090   -0.7460 C   0  0  0  0  0  0  0  0  0  0  0  0
    4.6680   11.2050   -0.7590 C   0  0  0  0  0  0  0  0  0  0  0  0
    1.7990   12.2080   -3.7360 C   0  0  0  0  0  0  0  0  0  0  0  0
    1.0820   13.4030   -3.6350 C   0  0  0  0  0  0  0  0  0  0  0  0
    1.3270   14.2630   -2.5780 C   0  0  0  0  0  0  0  0  0  0  0  0
    2.2850   13.9230   -1.6310 C   0  0  0  0  0  0  0  0  0  0  0  0
    5.5280    8.2670   -0.5390 C   0  0  0  0  0  0  0  0  0  0  0  0
    6.6970    7.9100   -0.4880 O   0  0  0  0  0  0  0  0  0  0  0  0
    4.5620    8.0050    0.5920 C   0  0  0  0  0  0  0  0  0  0  0  0
    6.9180    6.6710   -3.4260 C   0  0  0  0  0  0  0  0  0  0  0  0
    4.9720    5.5450   -2.2230 C   0  0  0  0  0  0  0  0  0  0  0  0
    5.7540   11.0920    0.2870 C   0  0  0  0  0  0  0  0  0  0  0  0
    4.1450   -0.3280   -1.6980 C   0  0  0  0  0  0  0  0  0  0  0  0
    4.5840   -1.5690   -1.1720 C   0  0  0  0  0  0  0  0  0  0  0  0
   -2.0130   -3.7900   -4.2630 C   0  0  0  0  0  0  0  0  0  0  0  0
   -1.2740   -4.9910   -4.1580 C   0  0  0  0  0  0  0  0  0  0  0  0
    2.9040   -0.2530   -2.4000 C   0  0  0  0  0  0  0  0  0  0  0  0
    3.8210   -2.7170   -1.5100 C   0  0  0  0  0  0  0  0  0  0  0  0
   -1.3120   -2.5570   -4.0040 C   0  0  0  0  0  0  0  0  0  0  0  0
    0.0050   -4.9790   -3.5930 C   0  0  0  0  0  0  0  0  0  0  0  0
    0.7740   -1.4060   -3.1420 C   0  0  0  0  0  0  0  0  0  0  0  0
    1.8620   -3.8330   -2.5340 C   0  0  0  0  0  0  0  0  0  0  0  0
    2.0850   -1.4190   -2.5810 C   0  0  0  0  0  0  0  0  0  0  0  0
    2.5940   -2.6680   -2.2040 C   0  0  0  0  0  0  0  0  0  0  0  0
    0.0110   -2.5630   -3.4510 C   0  0  0  0  0  0  0  0  0  0  0  0
    0.6240   -3.7940   -3.1910 C   0  0  0  0  0  0  0  0  0  0  0  0
    4.9640    0.8440   -1.5480 C   0  0  0  0  0  0  0  0  0  0  0  0
    6.1840    0.8010   -0.8290 C   0  0  0  0  0  0  0  0  0  0  0  0
    6.5350   -0.4180   -0.2280 C   0  0  0  0  0  0  0  0  0  0  0  0
    5.7700   -1.5830   -0.3810 C   0  0  0  0  0  0  0  0  0  0  0  0
   -3.3940   -3.9340   -4.6000 C   0  0  0  0  0  0  0  0  0  0  0  0
   -3.9150   -5.1530   -5.0550 C   0  0  0  0  0  0  0  0  0  0  0  0
   -3.1210   -6.2900   -5.0640 C   0  0  0  0  0  0  0  0  0  0  0  0
   -1.8250   -6.2160   -4.5730 C   0  0  0  0  0  0  0  0  0  0  0  0
    4.5720    2.0640   -2.1570 C   0  0  0  0  0  0  0  0  0  0  0  0
    5.3990    3.2020   -2.0780 C   0  0  0  0  0  0  0  0  0  0  0  0
    6.5920    3.1640   -1.3720 C   0  0  0  0  0  0  0  0  0  0  0  0
    6.9850    1.9750   -0.7510 C   0  0  0  0  0  0  0  0  0  0  0  0
    3.3620    2.1140   -2.8500 C   0  0  0  0  0  0  0  0  0  0  0  0
    2.5440    0.9930   -2.9450 C   0  0  0  0  0  0  0  0  0  0  0  0
    8.3090    1.9920   -0.0860 C   0  0  0  0  0  0  0  0  0  0  0  0
    8.8530    3.0380    0.2510 O   0  0  0  0  0  0  0  0  0  0  0  0
    5.1010    4.2740   -2.8770 O   0  0  0  0  0  0  0  0  0  0  0  0
   -4.2300   -2.8510   -4.4250 O   0  0  0  0  0  0  0  0  0  0  0  0
    4.3210   -3.9600   -1.1790 O   0  0  0  0  0  0  0  0  0  0  0  0
    6.2750   -2.8250    0.3180 C   0  0  0  0  0  0  0  0  0  0  0  0
   -1.9740   -1.2340   -4.3370 C   0  0  0  0  0  0  0  0  0  0  0  0
   -4.4890   -4.5000    2.1470 C   0  0  0  0  0  0  0  0  0  0  0  0
   -3.2130   -4.5950    2.7690 C   0  0  0  0  0  0  0  0  0  0  0  0
   -6.5850   -5.2060    6.5580 C   0  0  0  0  0  0  0  0  0  0  0  0
   -5.3320   -5.2870    7.1930 C   0  0  0  0  0  0  0  0  0  0  0  0
   -5.6250   -4.2950    2.9870 C   0  0  0  0  0  0  0  0  0  0  0  0
   -3.1190   -4.5660    4.1830 C   0  0  0  0  0  0  0  0  0  0  0  0
   -6.6590   -4.8790    5.1930 C   0  0  0  0  0  0  0  0  0  0  0  0
   -4.2060   -5.0020    6.3810 C   0  0  0  0  0  0  0  0  0  0  0  0
   -5.5340   -4.5970    4.3820 C   0  0  0  0  0  0  0  0  0  0  0  0
   -4.2740   -4.7010    4.9900 C   0  0  0  0  0  0  0  0  0  0  0  0
   -4.6030   -4.7160    0.7270 C   0  0  0  0  0  0  0  0  0  0  0  0
   -3.4870   -5.2410    0.0540 C   0  0  0  0  0  0  0  0  0  0  0  0
   -2.2240   -5.1790    0.6620 C   0  0  0  0  0  0  0  0  0  0  0  0
   -2.0460   -4.8010    1.9920 C   0  0  0  0  0  0  0  0  0  0  0  0
   -7.7570   -5.4690    7.2790 C   0  0  0  0  0  0  0  0  0  0  0  0
   -7.7050   -5.8020    8.6250 C   0  0  0  0  0  0  0  0  0  0  0  0
   -6.4740   -5.8990    9.2670 C   0  0  0  0  0  0  0  0  0  0  0  0
   -5.2700   -5.6760    8.5740 C   0  0  0  0  0  0  0  0  0  0  0  0
   -6.9570   -3.8580    2.3630 C   0  0  2  0  0  0  0  0  0  0  0  0
   -6.7980   -3.4590    0.8660 C   0  0  2  0  0  0  0  0  0  0  0  0
   -5.9920   -4.5520    0.0810 C   0  0  1  0  0  0  0  0  0  0  0  0
   -1.7340   -4.5870    4.8000 C   0  0  0  0  0  0  0  0  0  0  0  0
   -0.6910   -4.0340    3.8360 C   0  0  0  0  0  0  0  0  0  0  0  0
   -0.7680   -4.7320    2.5600 N   0  0  0  0  0  0  0  0  0  0  0  0
   -6.0860   -4.1870   -1.4350 C   0  0  0  0  0  0  0  0  0  0  0  0
   -7.0250   -4.6490   -2.0990 O   0  0  0  0  0  0  0  0  0  0  0  0
   -5.0900   -3.2430   -2.1200 C   0  0  0  0  0  0  0  0  0  0  0  0
   -6.7010   -5.9370    0.2300 C   0  0  0  0  0  0  0  0  0  0  0  0
   -5.3990   -3.1190   -3.6260 C   0  0  0  0  0  0  0  0  0  0  0  0
    0.4480   -4.8840    1.7800 C   0  0  0  0  0  0  0  0  0  0  0  0
   -6.2310   -2.0290    0.6810 C   0  0  0  0  0  0  0  0  0  0  0  0
   -7.6530   -2.7130    3.1350 C   0  0  0  0  0  0  0  0  0  0  0  0
   -3.5130   -5.9820   -1.2550 C   0  0  0  0  0  0  0  0  0  0  0  0
   -3.9210   -5.7820    9.2710 C   0  0  0  0  0  0  0  0  0  0  0  0
   -3.8220   -6.7760   10.7870 S   0  0  0  0  0  0  0  0  0  0  0  0
    4.9080    5.5450   -5.1650 H   0  0  0  0  0  0  0  0  0  0  0  0
    2.7400    9.9150   -4.7550 H   0  0  0  0  0  0  0  0  0  0  0  0
    3.4420    7.5590   -5.9050 H   0  0  0  0  0  0  0  0  0  0  0  0
    4.1450   13.1340    0.0440 H   0  0  0  0  0  0  0  0  0  0  0  0
    1.5480   11.5690   -4.5790 H   0  0  0  0  0  0  0  0  0  0  0  0
    0.3350   13.6540   -4.3840 H   0  0  0  0  0  0  0  0  0  0  0  0
    0.7720   15.1910   -2.4870 H   0  0  0  0  0  0  0  0  0  0  0  0
    2.4670   14.6110   -0.8080 H   0  0  0  0  0  0  0  0  0  0  0  0
    3.6550    8.6070    0.5000 H   0  0  0  0  0  0  0  0  0  0  0  0
    4.2820    6.9480    0.5840 H   0  0  0  0  0  0  0  0  0  0  0  0
    5.0450    8.2510    1.5430 H   0  0  0  0  0  0  0  0  0  0  0  0
    7.2280    7.4730   -4.1080 H   0  0  0  0  0  0  0  0  0  0  0  0
    7.4640    6.8160   -2.4910 H   0  0  0  0  0  0  0  0  0  0  0  0
    7.2640    5.7240   -3.8550 H   0  0  0  0  0  0  0  0  0  0  0  0
    5.5580    5.5980   -1.3000 H   0  0  0  0  0  0  0  0  0  0  0  0
    3.9170    5.6610   -1.9460 H   0  0  0  0  0  0  0  0  0  0  0  0
    6.6310   10.5710   -0.1030 H   0  0  0  0  0  0  0  0  0  0  0  0
    5.3750   10.6000    1.1850 H   0  0  0  0  0  0  0  0  0  0  0  0
    6.1160   12.0840    0.5750 H   0  0  0  0  0  0  0  0  0  0  0  0
    0.5260   -5.9250   -3.4460 H   0  0  0  0  0  0  0  0  0  0  0  0
    0.3140   -0.4420   -3.3270 H   0  0  0  0  0  0  0  0  0  0  0  0
    2.2590   -4.8080   -2.2600 H   0  0  0  0  0  0  0  0  0  0  0  0
    7.4340   -0.4950    0.3780 H   0  0  0  0  0  0  0  0  0  0  0  0
   -4.9420   -5.2300   -5.4010 H   0  0  0  0  0  0  0  0  0  0  0  0
   -3.5280   -7.2390   -5.4060 H   0  0  0  0  0  0  0  0  0  0  0  0
   -1.2360   -7.1290   -4.5230 H   0  0  0  0  0  0  0  0  0  0  0  0
    7.2470    4.0320   -1.3570 H   0  0  0  0  0  0  0  0  0  0  0  0
    3.0340    3.0340   -3.3280 H   0  0  0  0  0  0  0  0  0  0  0  0
    1.6270    1.1210   -3.5150 H   0  0  0  0  0  0  0  0  0  0  0  0
    8.8060    1.0290    0.0910 H   0  0  0  0  0  0  0  0  0  0  0  0
    4.3610   -4.4660   -2.0110 H   0  0  0  0  0  0  0  0  0  0  0  0
    7.0630   -2.5860    1.0410 H   0  0  0  0  0  0  0  0  0  0  0  0
    5.4740   -3.3020    0.8940 H   0  0  0  0  0  0  0  0  0  0  0  0
    6.6980   -3.5260   -0.4080 H   0  0  0  0  0  0  0  0  0  0  0  0
   -2.6450   -1.3230   -5.1940 H   0  0  0  0  0  0  0  0  0  0  0  0
   -1.2440   -0.4860   -4.6670 H   0  0  0  0  0  0  0  0  0  0  0  0
   -2.5150   -0.8500   -3.4650 H   0  0  0  0  0  0  0  0  0  0  0  0
   -7.6470   -4.9210    4.7350 H   0  0  0  0  0  0  0  0  0  0  0  0
   -3.2220   -5.0710    6.8330 H   0  0  0  0  0  0  0  0  0  0  0  0
   -1.3660   -5.4980    0.0750 H   0  0  0  0  0  0  0  0  0  0  0  0
   -8.7280   -5.4100    6.7940 H   0  0  0  0  0  0  0  0  0  0  0  0
   -8.6230   -5.9940    9.1740 H   0  0  0  0  0  0  0  0  0  0  0  0
   -6.4840   -6.1590   10.3200 H   0  0  0  0  0  0  0  0  0  0  0  0
   -7.6320   -4.7220    2.4020 H   0  0  0  0  0  0  0  0  0  0  0  0
   -7.8150   -3.4220    0.4470 H   0  0  0  0  0  0  0  0  0  0  0  0
   -1.4830   -5.6210    5.0710 H   0  0  0  0  0  0  0  0  0  0  0  0
   -1.7040   -3.9680    5.7040 H   0  0  0  0  0  0  0  0  0  0  0  0
   -0.8410   -2.9590    3.6740 H   0  0  0  0  0  0  0  0  0  0  0  0
    0.3010   -4.1540    4.2860 H   0  0  0  0  0  0  0  0  0  0  0  0
   -5.1240   -2.2450   -1.6840 H   0  0  0  0  0  0  0  0  0  0  0  0
   -4.0740   -3.5980   -1.9750 H   0  0  0  0  0  0  0  0  0  0  0  0
   -6.6100   -6.3670    1.2340 H   0  0  0  0  0  0  0  0  0  0  0  0
   -6.2810   -6.6780   -0.4600 H   0  0  0  0  0  0  0  0  0  0  0  0
   -7.7700   -5.8610    0.0030 H   0  0  0  0  0  0  0  0  0  0  0  0
   -6.0670   -2.2610   -3.7680 H   0  0  0  0  0  0  0  0  0  0  0  0
   -5.9510   -3.9710   -4.0330 H   0  0  0  0  0  0  0  0  0  0  0  0
    0.4890   -5.8700    1.3050 H   0  0  0  0  0  0  0  0  0  0  0  0
    0.5250   -4.1080    1.0120 H   0  0  0  0  0  0  0  0  0  0  0  0
    1.3380   -4.8120    2.4170 H   0  0  0  0  0  0  0  0  0  0  0  0
   -6.6360   -1.3070    1.3910 H   0  0  0  0  0  0  0  0  0  0  0  0
   -6.5220   -1.6380   -0.2970 H   0  0  0  0  0  0  0  0  0  0  0  0
   -5.1420   -1.9950    0.7690 H   0  0  0  0  0  0  0  0  0  0  0  0
   -8.1330   -3.0450    4.0580 H   0  0  0  0  0  0  0  0  0  0  0  0
   -8.4560   -2.2650    2.5350 H   0  0  0  0  0  0  0  0  0  0  0  0
   -6.9460   -1.9280    3.4220 H   0  0  0  0  0  0  0  0  0  0  0  0
   -4.5030   -6.0790   -1.7010 H   0  0  0  0  0  0  0  0  0  0  0  0
   -2.8650   -5.4740   -1.9640 H   0  0  0  0  0  0  0  0  0  0  0  0
   -3.1370   -7.0000   -1.1120 H   0  0  0  0  0  0  0  0  0  0  0  0
   -3.2000   -6.2550    8.5970 H   0  0  0  0  0  0  0  0  0  0  0  0
   -3.5690   -4.7720    9.5030 H   0  0  0  0  0  0  0  0  0  0  0  0
   -4.6270   -6.0070   11.5230 H   0  0  0  0  0  0  0  0  0  0  0  0
  1  2  2  0
  1  4  1  0
  1 10  1  0
  2  5  1  0
  2 13  1  0
  3  6  2  0
  3  7  1  0
  3 94  1  0
  4  8  2  0
  4 95  1  0
  5  9  2  0
  5 18  1  0
  6  8  1  0
  6 96  1  0
  7  9  1  0
  7 21  1  6
  7 22  1  0
  8  9  1  0
 10 11  2  0
 10 14  1  0
 11 12  1  0
 11 17  1  0
 12 13  2  0
 12 97  1  0
 13 23  1  0
 14 15  2  0
 14 98  1  0
 15 16  1  0
 15 99  1  0
 16 17  2  0
 16100  1  0
 17101  1  0
 18 19  2  0
 18 20  1  0
 20102  1  0
 20103  1  0
 20104  1  0
 21105  1  0
 21106  1  0
 21107  1  0
 22 54  1  0
 22108  1  0
 22109  1  0
 23110  1  0
 23111  1  0
 23112  1  0
 24 25  1  0
 24 28  2  0
 24 38  1  0
 25 29  2  0
 25 41  1  0
 26 27  2  0
 26 30  1  0
 26 42  1  0
 27 31  1  0
 27 45  1  0
 28 34  1  0
 28 51  1  0
 29 35  1  0
 29 56  1  0
 30 36  2  0
 30 58  1  0
 31 37  2  0
 31113  1  0
 32 34  2  0
 32 36  1  0
 32114  1  0
 33 35  2  0
 33 37  1  0
 33115  1  0
 34 35  1  0
 36 37  1  0
 38 39  2  0
 38 46  1  0
 39 40  1  0
 39 49  1  0
 40 41  2  0
 40116  1  0
 41 57  1  0
 42 43  2  0
 42 55  1  0
 43 44  1  0
 43117  1  0
 44 45  2  0
 44118  1  0
 45119  1  0
 46 47  2  0
 46 50  1  0
 47 48  1  0
 47 54  1  0
 48 49  2  0
 48120  1  0
 49 52  1  0
 50 51  2  0
 50121  1  0
 51122  1  0
 52 53  2  0
 52123  1  0
 55 87  1  0
 56124  1  0
 57125  1  0
 57126  1  0
 57127  1  0
 58128  1  0
 58129  1  0
 58130  1  0
 59 60  2  0
 59 63  1  0
 59 69  1  0
 60 64  1  0
 60 72  1  0
 61 62  1  0
 61 65  2  0
 61 73  1  0
 62 66  2  0
 62 76  1  0
 63 67  2  0
 63 77  1  0
 64 68  2  0
 64 80  1  0
 65 67  1  0
 65131  1  0
 66 68  1  0
 66132  1  0
 67 68  1  0
 69 70  2  0
 69 79  1  0
 70 71  1  0
 70 91  1  0
 71 72  2  0
 71133  1  0
 72 82  1  0
 73 74  2  0
 73134  1  0
 74 75  1  0
 74135  1  0
 75 76  2  0
 75136  1  0
 76 92  1  0
 77 78  1  0
 77 90  1  0
 77137  1  6
 78 79  1  0
 78 89  1  0
 78138  1  6
 79 83  1  0
 79 86  1  6
 80 81  1  0
 80139  1  0
 80140  1  0
 81 82  1  0
 81141  1  0
 81142  1  0
 82 88  1  0
 83 84  2  0
 83 85  1  0
 85 87  1  0
 85143  1  0
 85144  1  0
 86145  1  0
 86146  1  0
 86147  1  0
 87148  1  0
 87149  1  0
 88150  1  0
 88151  1  0
 88152  1  0
 89153  1  0
 89154  1  0
 89155  1  0
 90156  1  0
 90157  1  0
 90158  1  0
 91159  1  0
 91160  1  0
 91161  1  0
 92 93  1  0
 92162  1  0
 92163  1  0
 93164  1  0
M  END
