
     RDKit          3D

271302  0  0  0  0  0  0  0  0999 V2000
    4.4370   -2.9510   -0.0950 C   0  0  0  0  0  0  0  0  0  0  0  0
    4.4270   -3.3300    1.2710 C   0  0  0  0  0  0  0  0  0  0  0  0
    4.3630   -7.5760   -0.7490 C   0  0  0  0  0  0  0  0  0  0  0  0
    4.5560   -3.9380   -1.1050 C   0  0  0  0  0  0  0  0  0  0  0  0
    4.3400   -4.6960    1.5860 C   0  0  0  0  0  0  0  0  0  0  0  0
    4.7690   -6.5580   -1.5370 C   0  0  0  0  0  0  0  0  0  0  0  0
    3.9390   -7.1120    0.6380 C   0  0  2  0  0  0  0  0  0  0  0  0
    4.6280   -5.3010   -0.7560 C   0  0  0  0  0  0  0  0  0  0  0  0
    4.3780   -5.6570    0.5790 C   0  0  0  0  0  0  0  0  0  0  0  0
    4.2360   -1.5800   -0.4480 C   0  0  0  0  0  0  0  0  0  0  0  0
    4.1800   -0.5790    0.5440 C   0  0  0  0  0  0  0  0  0  0  0  0
    4.3240   -0.9580    1.8910 C   0  0  0  0  0  0  0  0  0  0  0  0
    4.4340   -2.3060    2.2400 C   0  0  0  0  0  0  0  0  0  0  0  0
    4.0140   -1.2530   -1.8000 C   0  0  0  0  0  0  0  0  0  0  0  0
    3.5250    0.0200   -2.1370 C   0  0  0  0  0  0  0  0  0  0  0  0
    3.5150    1.0460   -1.1670 C   0  0  0  0  0  0  0  0  0  0  0  0
    3.9350    0.7440    0.1360 C   0  0  0  0  0  0  0  0  0  0  0  0
    4.1830   -2.1810   -2.7340 N   0  0  0  0  0  0  0  0  0  0  0  0
    4.4580   -3.4620   -2.3990 C   0  0  0  0  0  0  0  0  0  0  0  0
    2.9930    2.4380   -1.4700 C   0  0  0  0  0  0  0  0  0  0  0  0
    2.6250    2.7410   -2.6040 O   0  0  0  0  0  0  0  0  0  0  0  0
    2.9300    3.4900   -0.3670 C   0  0  0  0  0  0  0  0  0  0  0  0
    2.8220    0.2420   -3.3040 O   0  0  0  0  0  0  0  0  0  0  0  0
    4.0970   -5.1330    2.8630 O   0  0  0  0  0  0  0  0  0  0  0  0
    4.2810   -0.0920    2.9460 O   0  0  0  0  0  0  0  0  0  0  0  0
    4.6540   -7.9020    1.7390 C   0  0  0  0  0  0  0  0  0  0  0  0
    2.3740   -7.1880    0.8050 C   0  0  0  0  0  0  0  0  0  0  0  0
    1.9630    3.1500    0.7770 C   0  0  0  0  0  0  0  0  0  0  0  0
    5.3340   -6.6930   -2.9190 C   0  0  0  0  0  0  0  0  0  0  0  0
    4.3240   -9.0330   -1.0870 C   0  0  0  0  0  0  0  0  0  0  0  0
    6.8540   -6.6810   -2.9070 C   0  0  0  0  0  0  0  0  0  0  0  0
    1.5790   -6.3580   -0.2350 C   0  0  0  0  0  0  0  0  0  0  0  0
    6.2360   -0.2580   -9.4170 C   0  0  0  0  0  0  0  0  0  0  0  0
    5.7930    0.5370   -8.3510 C   0  0  0  0  0  0  0  0  0  0  0  0
    2.0620   -5.9340   -7.2850 C   0  0  0  0  0  0  0  0  0  0  0  0
    1.4840   -1.7460   -4.9270 C   0  0  0  0  0  0  0  0  0  0  0  0
    5.7180   -1.5500   -9.5440 C   0  0  0  0  0  0  0  0  0  0  0  0
    1.3610   -5.1170   -6.3830 C   0  0  0  0  0  0  0  0  0  0  0  0
    0.9920   -2.9490   -5.2630 C   0  0  0  0  0  0  0  0  0  0  0  0
    3.0760   -5.3560   -8.0710 C   0  0  0  0  0  0  0  0  0  0  0  0
    4.8370    0.0210   -7.4490 C   0  0  0  0  0  0  0  0  0  0  0  0
    2.9220   -1.3810   -5.2640 C   0  0  1  0  0  0  0  0  0  0  0  0
    4.3890   -3.4170   -8.7730 C   0  0  0  0  0  0  0  0  0  0  0  0
    1.7750   -3.7780   -6.2070 C   0  0  0  0  0  0  0  0  0  0  0  0
    4.7920   -2.0820   -8.6230 C   0  0  0  0  0  0  0  0  0  0  0  0
    3.4320   -3.9980   -7.9390 C   0  0  0  0  0  0  0  0  0  0  0  0
    4.3040   -1.2870   -7.5450 C   0  0  0  0  0  0  0  0  0  0  0  0
    3.3400   -1.8850   -6.6690 C   0  0  0  0  0  0  0  0  0  0  0  0
    2.8490   -3.2090   -6.9350 C   0  0  0  0  0  0  0  0  0  0  0  0
    7.1810    0.2640  -10.3210 C   0  0  0  0  0  0  0  0  0  0  0  0
    7.6950    1.5490  -10.1560 C   0  0  0  0  0  0  0  0  0  0  0  0
    7.2630    2.3350   -9.0900 C   0  0  0  0  0  0  0  0  0  0  0  0
    6.3160    1.8370   -8.1990 C   0  0  0  0  0  0  0  0  0  0  0  0
    1.7240   -7.2950   -7.3840 C   0  0  0  0  0  0  0  0  0  0  0  0
    0.6870   -7.8350   -6.6170 C   0  0  0  0  0  0  0  0  0  0  0  0
   -0.0660   -7.0000   -5.7840 C   0  0  0  0  0  0  0  0  0  0  0  0
    0.2570   -5.6490   -5.6740 C   0  0  0  0  0  0  0  0  0  0  0  0
   -0.5810   -4.7530   -4.8560 C   0  0  0  0  0  0  0  0  0  0  0  0
   -0.2450   -3.4660   -4.7000 C   0  0  0  0  0  0  0  0  0  0  0  0
    3.4030   -0.0560   -4.5980 C   0  0  0  0  0  0  0  0  0  0  0  0
    0.4090    6.5980    4.4070 C   0  0  0  0  0  0  0  0  0  0  0  0
   -9.4560   10.1080    5.5810 C   0  0  0  0  0  0  0  0  0  0  0  0
   -0.4420    7.1060    5.4070 C   0  0  0  0  0  0  0  0  0  0  0  0
   -8.4360   10.0650    6.5220 C   0  0  0  0  0  0  0  0  0  0  0  0
    0.0930    6.8090    3.0570 C   0  0  0  0  0  0  0  0  0  0  0  0
   -9.2030    9.8010    4.2450 C   0  0  0  0  0  0  0  0  0  0  0  0
   -1.6890    7.6600    5.0470 C   0  0  0  0  0  0  0  0  0  0  0  0
   -7.1310    9.7070    6.1510 C   0  0  0  0  0  0  0  0  0  0  0  0
   -1.7220    7.2270    1.3480 C   0  0  0  0  0  0  0  0  0  0  0  0
   -3.0160    7.6480    1.0380 C   0  0  0  0  0  0  0  0  0  0  0  0
   -7.3750    9.1650    2.6570 N   0  0  0  0  0  0  0  0  0  0  0  0
   -5.1850    8.4420    1.7140 C   0  0  0  0  0  0  0  0  0  0  0  0
   -4.3010    8.5790    4.4010 C   0  0  0  0  0  0  0  0  0  0  0  0
   -1.2120    7.2350    2.6710 C   0  0  0  0  0  0  0  0  0  0  0  0
   -7.8860    9.4630    3.8940 C   0  0  0  0  0  0  0  0  0  0  0  0
   -3.8730    8.0840    2.0450 C   0  0  0  0  0  0  0  0  0  0  0  0
   -6.0430    8.8390    2.7420 C   0  0  0  0  0  0  0  0  0  0  0  0
   -2.1010    7.6830    3.6890 C   0  0  0  0  0  0  0  0  0  0  0  0
   -6.8350    9.3830    4.8050 C   0  0  0  0  0  0  0  0  0  0  0  0
   -3.4240    8.1240    3.3740 C   0  0  0  0  0  0  0  0  0  0  0  0
   -5.6570    8.9420    4.0780 C   0  0  0  0  0  0  0  0  0  0  0  0
   -2.5480    8.1380    6.0620 C   0  0  0  0  0  0  0  0  0  0  0  0
   -3.8310    8.5920    5.7280 C   0  0  0  0  0  0  0  0  0  0  0  0
    1.5500    5.8500    4.7660 C   0  0  0  0  0  0  0  0  0  0  0  0
    1.9410    5.7920    6.1110 C   0  0  0  0  0  0  0  0  0  0  0  0
    1.1630    6.4020    7.0920 C   0  0  0  0  0  0  0  0  0  0  0  0
   -0.0470    7.0310    6.7600 C   0  0  0  0  0  0  0  0  0  0  0  0
   -0.8890    7.5680    7.7400 C   0  0  0  0  0  0  0  0  0  0  0  0
   -2.1230    8.1150    7.3980 C   0  0  0  0  0  0  0  0  0  0  0  0
    1.2920    6.7110    2.1290 C   0  0  0  0  0  0  0  0  0  0  0  0
    1.9670    5.3290    2.2240 C   0  0  1  0  0  0  0  0  0  0  0  0
    2.2140    4.9250    3.7260 C   0  0  2  0  0  0  0  0  0  0  0  0
    1.8770    3.4490    4.0510 C   0  0  0  0  0  0  0  0  0  0  0  0
    2.7160    2.5450    3.8860 O   0  0  0  0  0  0  0  0  0  0  0  0
    0.4330    3.0970    4.3900 C   0  0  0  0  0  0  0  0  0  0  0  0
   -0.9860    6.6700    0.3350 O   0  0  0  0  0  0  0  0  0  0  0  0
    0.2130    2.1260    5.5430 C   0  0  0  0  0  0  0  0  0  0  0  0
    1.1790    4.3550    1.3060 C   0  0  0  0  0  0  0  0  0  0  0  0
   -2.9400    0.7430   -5.0560 C   0  0  0  0  0  0  0  0  0  0  0  0
   -3.9280   -0.2510   -5.1860 C   0  0  0  0  0  0  0  0  0  0  0  0
   -1.2300   -2.9720    0.7810 C   0  0  0  0  0  0  0  0  0  0  0  0
   -2.0330    0.6670   -3.9540 C   0  0  0  0  0  0  0  0  0  0  0  0
   -3.9740   -1.3210   -4.2790 C   0  0  0  0  0  0  0  0  0  0  0  0
   -0.7280   -1.8170    0.2980 C   0  0  0  0  0  0  0  0  0  0  0  0
   -2.2950   -3.5910   -0.1040 C   0  0  1  0  0  0  0  0  0  0  0  0
   -1.3090   -0.4720   -1.8390 C   0  0  0  0  0  0  0  0  0  0  0  0
   -3.2090   -2.4880   -2.2970 C   0  0  0  0  0  0  0  0  0  0  0  0
   -2.1270   -0.3880   -2.9940 C   0  0  0  0  0  0  0  0  0  0  0  0
   -3.1050   -1.4030   -3.1900 C   0  0  0  0  0  0  0  0  0  0  0  0
   -1.4280   -1.5410   -0.9590 C   0  0  0  0  0  0  0  0  0  0  0  0
   -2.3640   -2.5490   -1.2000 C   0  0  0  0  0  0  0  0  0  0  0  0
   -2.8970    1.8050   -6.0010 C   0  0  0  0  0  0  0  0  0  0  0  0
   -3.9090    1.9310   -6.9960 C   0  0  0  0  0  0  0  0  0  0  0  0
   -4.9030    0.9280   -7.0960 C   0  0  0  0  0  0  0  0  0  0  0  0
   -4.8730   -0.1590   -6.2090 C   0  0  0  0  0  0  0  0  0  0  0  0
   -1.8410    2.7430   -5.9780 C   0  0  0  0  0  0  0  0  0  0  0  0
   -1.8140    3.8240   -6.8680 C   0  0  0  0  0  0  0  0  0  0  0  0
   -2.8370    3.9870   -7.7900 C   0  0  0  0  0  0  0  0  0  0  0  0
   -3.8560    3.0400   -7.8670 C   0  0  0  0  0  0  0  0  0  0  0  0
   -1.0510    1.8120   -3.7720 C   0  0  0  0  0  0  0  0  0  0  0  0
   -0.6590    2.4870   -5.0830 C   0  0  0  0  0  0  0  0  0  0  0  0
   -1.9900   -4.9950   -0.6450 C   0  0  0  0  0  0  0  0  0  0  0  0
   -2.9020   -5.8110   -0.8540 O   0  0  0  0  0  0  0  0  0  0  0  0
   -0.5660   -5.3630   -1.0250 C   0  0  0  0  0  0  0  0  0  0  0  0
   -0.8420   -3.5980    2.0480 C   0  0  0  0  0  0  0  0  0  0  0  0
   -1.4200   -4.5840    2.4820 O   0  0  0  0  0  0  0  0  0  0  0  0
    0.0630   -6.3840   -0.0700 C   0  0  0  0  0  0  0  0  0  0  0  0
    0.2860   -0.8790    0.8440 C   0  0  0  0  0  0  0  0  0  0  0  0
   -5.9790    0.9640   -8.1570 C   0  0  0  0  0  0  0  0  0  0  0  0
   -2.1520   -1.8130    6.7950 C   0  0  0  0  0  0  0  0  0  0  0  0
   -3.5020   -2.2110    6.7100 C   0  0  0  0  0  0  0  0  0  0  0  0
   -3.2410    1.4160    3.0690 C   0  0  0  0  0  0  0  0  0  0  0  0
   -4.5910    1.0360    3.0510 C   0  0  0  0  0  0  0  0  0  0  0  0
   -1.6760   -0.7880    5.8860 C   0  0  0  0  0  0  0  0  0  0  0  0
   -4.3480   -1.6450    5.7630 C   0  0  0  0  0  0  0  0  0  0  0  0
   -2.3230    0.7750    3.9320 C   0  0  0  0  0  0  0  0  0  0  0  0
   -4.9430   -0.0240    3.9730 C   0  0  0  0  0  0  0  0  0  0  0  0
   -2.6090   -0.2100    4.9040 C   0  0  0  0  0  0  0  0  0  0  0  0
   -3.9710   -0.6250    4.8740 C   0  0  0  0  0  0  0  0  0  0  0  0
   -1.3630   -2.4630    7.7860 C   0  0  0  0  0  0  0  0  0  0  0  0
   -1.9410   -3.3650    8.7120 C   0  0  0  0  0  0  0  0  0  0  0  0
   -3.2860   -3.7130    8.6090 C   0  0  0  0  0  0  0  0  0  0  0  0
   -4.0470   -3.1530    7.5960 C   0  0  0  0  0  0  0  0  0  0  0  0
   -2.7850    2.4530    2.2290 C   0  0  0  0  0  0  0  0  0  0  0  0
   -3.6350    3.1560    1.3790 C   0  0  0  0  0  0  0  0  0  0  0  0
   -4.9650    2.7990    1.3290 C   0  0  0  0  0  0  0  0  0  0  0  0
   -5.4290    1.7540    2.1290 C   0  0  0  0  0  0  0  0  0  0  0  0
   -0.2040   -0.2990    6.2060 C   0  0  1  0  0  0  0  0  0  0  0  0
    0.6870   -1.5330    6.5970 C   0  0  2  0  0  0  0  0  0  0  0  0
    0.1060   -2.1710    7.8660 C   0  0  0  0  0  0  0  0  0  0  0  0
   -1.1710   -3.9780    9.8290 C   0  0  0  0  0  0  0  0  0  0  0  0
   -1.6850   -4.7580   10.6260 O   0  0  0  0  0  0  0  0  0  0  0  0
   -6.7580    1.4290    1.9960 O   0  0  0  0  0  0  0  0  0  0  0  0
    2.1700   -1.2200    6.9360 C   0  0  0  0  0  0  0  0  0  0  0  0
    3.1450   -1.6370    5.8280 C   0  0  0  0  0  0  0  0  0  0  0  0
    0.5440    0.6500    5.2380 C   0  0  0  0  0  0  0  0  0  0  0  0
    4.5680   -1.2050    6.1540 C   0  0  0  0  0  0  0  0  0  0  0  0
   -6.3880   -0.5330    3.9790 C   0  0  0  0  0  0  0  0  0  0  0  0
   -6.6260   -1.9370    2.8420 S   0  0  0  0  0  0  0  0  0  0  0  0
    4.5250   -2.5360    3.2950 H   0  0  0  0  0  0  0  0  0  0  0  0
    4.0280    1.5240    0.8780 H   0  0  0  0  0  0  0  0  0  0  0  0
    4.5050   -4.1030   -3.2650 H   0  0  0  0  0  0  0  0  0  0  0  0
    3.9380    3.6940    0.0160 H   0  0  0  0  0  0  0  0  0  0  0  0
    2.6160    4.4260   -0.8510 H   0  0  0  0  0  0  0  0  0  0  0  0
    3.7250   -4.4130    3.3870 H   0  0  0  0  0  0  0  0  0  0  0  0
    3.7510    0.7020    2.7490 H   0  0  0  0  0  0  0  0  0  0  0  0
    5.7420   -7.8160    1.6540 H   0  0  0  0  0  0  0  0  0  0  0  0
    4.3970   -8.9650    1.6970 H   0  0  0  0  0  0  0  0  0  0  0  0
    4.3740   -7.5700    2.7460 H   0  0  0  0  0  0  0  0  0  0  0  0
    2.0920   -6.8310    1.8090 H   0  0  0  0  0  0  0  0  0  0  0  0
    2.0480   -8.2340    0.7490 H   0  0  0  0  0  0  0  0  0  0  0  0
    2.5410    2.7180    1.5930 H   0  0  0  0  0  0  0  0  0  0  0  0
    1.2390    2.3790    0.4610 H   0  0  0  0  0  0  0  0  0  0  0  0
    4.9580   -5.9360   -3.6020 H   0  0  0  0  0  0  0  0  0  0  0  0
    4.9970   -7.6270   -3.3820 H   0  0  0  0  0  0  0  0  0  0  0  0
    3.3200   -9.4390   -0.9360 H   0  0  0  0  0  0  0  0  0  0  0  0
    5.0220   -9.5880   -0.4510 H   0  0  0  0  0  0  0  0  0  0  0  0
    4.6070   -9.2480   -2.1190 H   0  0  0  0  0  0  0  0  0  0  0  0
    7.2540   -5.7460   -2.5030 H   0  0  0  0  0  0  0  0  0  0  0  0
    7.2450   -7.5060   -2.2990 H   0  0  0  0  0  0  0  0  0  0  0  0
    7.2440   -6.8090   -3.9220 H   0  0  0  0  0  0  0  0  0  0  0  0
    1.8200   -6.7020   -1.2460 H   0  0  0  0  0  0  0  0  0  0  0  0
    1.8910   -5.3110   -0.1590 H   0  0  0  0  0  0  0  0  0  0  0  0
    0.9350   -1.1050   -4.2440 H   0  0  0  0  0  0  0  0  0  0  0  0
    6.0720   -2.1720  -10.3680 H   0  0  0  0  0  0  0  0  0  0  0  0
    3.5920   -5.9700   -8.8090 H   0  0  0  0  0  0  0  0  0  0  0  0
    4.5050    0.6950   -6.6730 H   0  0  0  0  0  0  0  0  0  0  0  0
    3.4830   -2.1210   -4.6940 H   0  0  0  0  0  0  0  0  0  0  0  0
    4.8280   -4.0130   -9.5730 H   0  0  0  0  0  0  0  0  0  0  0  0
    7.5260   -0.3350  -11.1620 H   0  0  0  0  0  0  0  0  0  0  0  0
    8.4280    1.9390  -10.8570 H   0  0  0  0  0  0  0  0  0  0  0  0
    7.6640    3.3370   -8.9530 H   0  0  0  0  0  0  0  0  0  0  0  0
    5.9880    2.4630   -7.3720 H   0  0  0  0  0  0  0  0  0  0  0  0
    2.2700   -7.9530   -8.0570 H   0  0  0  0  0  0  0  0  0  0  0  0
    0.4530   -8.8900   -6.6810 H   0  0  0  0  0  0  0  0  0  0  0  0
   -0.8920   -7.4290   -5.2160 H   0  0  0  0  0  0  0  0  0  0  0  0
   -1.4940   -5.1440   -4.4170 H   0  0  0  0  0  0  0  0  0  0  0  0
   -0.8640   -2.7950   -4.1200 H   0  0  0  0  0  0  0  0  0  0  0  0
    4.4960   -0.0130   -4.5350 H   0  0  0  0  0  0  0  0  0  0  0  0
    3.0660    0.7800   -5.2240 H   0  0  0  0  0  0  0  0  0  0  0  0
  -10.4670   10.3720    5.8880 H   0  0  0  0  0  0  0  0  0  0  0  0
   -8.6460   10.3290    7.5580 H   0  0  0  0  0  0  0  0  0  0  0  0
   -9.9960    9.8350    3.5090 H   0  0  0  0  0  0  0  0  0  0  0  0
   -6.3700    9.6860    6.9180 H   0  0  0  0  0  0  0  0  0  0  0  0
   -3.3660    7.6050    0.0070 H   0  0  0  0  0  0  0  0  0  0  0  0
   -7.9190    9.1190    1.8090 H   0  0  0  0  0  0  0  0  0  0  0  0
   -5.5370    8.3940    0.6880 H   0  0  0  0  0  0  0  0  0  0  0  0
   -4.4750    8.9300    6.5250 H   0  0  0  0  0  0  0  0  0  0  0  0
    2.8260    5.2320    6.4080 H   0  0  0  0  0  0  0  0  0  0  0  0
    1.4900    6.3580    8.1330 H   0  0  0  0  0  0  0  0  0  0  0  0
   -0.6020    7.5480    8.7950 H   0  0  0  0  0  0  0  0  0  0  0  0
   -2.7710    8.4870    8.1850 H   0  0  0  0  0  0  0  0  0  0  0  0
    2.0120    7.4710    2.4680 H   0  0  0  0  0  0  0  0  0  0  0  0
    1.0850    6.9950    1.1010 H   0  0  0  0  0  0  0  0  0  0  0  0
    2.9590    5.4490    1.7640 H   0  0  0  0  0  0  0  0  0  0  0  0
    3.2950    5.0340    3.9080 H   0  0  0  0  0  0  0  0  0  0  0  0
   -0.1190    4.0020    4.6510 H   0  0  0  0  0  0  0  0  0  0  0  0
   -0.0230    2.7250    3.4700 H   0  0  0  0  0  0  0  0  0  0  0  0
   -1.4820    6.7250   -0.4960 H   0  0  0  0  0  0  0  0  0  0  0  0
    0.8010    2.4490    6.4150 H   0  0  0  0  0  0  0  0  0  0  0  0
   -0.8400    2.2100    5.8470 H   0  0  0  0  0  0  0  0  0  0  0  0
    0.8350    4.9050    0.4230 H   0  0  0  0  0  0  0  0  0  0  0  0
    0.2590    4.0320    1.7940 H   0  0  0  0  0  0  0  0  0  0  0  0
   -4.7260   -2.0970   -4.4180 H   0  0  0  0  0  0  0  0  0  0  0  0
   -3.2450   -3.6160    0.4420 H   0  0  0  0  0  0  0  0  0  0  0  0
   -0.5700    0.2910   -1.6190 H   0  0  0  0  0  0  0  0  0  0  0  0
   -3.9450   -3.2770   -2.4550 H   0  0  0  0  0  0  0  0  0  0  0  0
   -5.6340   -0.9310   -6.3110 H   0  0  0  0  0  0  0  0  0  0  0  0
   -0.9830    4.5250   -6.8560 H   0  0  0  0  0  0  0  0  0  0  0  0
   -2.8190    4.8240   -8.4810 H   0  0  0  0  0  0  0  0  0  0  0  0
   -4.6080    3.1820   -8.6360 H   0  0  0  0  0  0  0  0  0  0  0  0
   -0.1240    1.4700   -3.3060 H   0  0  0  0  0  0  0  0  0  0  0  0
   -1.5160    2.5470   -3.1050 H   0  0  0  0  0  0  0  0  0  0  0  0
   -0.1270    3.4160   -4.8630 H   0  0  0  0  0  0  0  0  0  0  0  0
    0.0400    1.8400   -5.6380 H   0  0  0  0  0  0  0  0  0  0  0  0
   -0.5980   -5.7760   -2.0380 H   0  0  0  0  0  0  0  0  0  0  0  0
    0.0350   -4.4530   -1.0990 H   0  0  0  0  0  0  0  0  0  0  0  0
    0.0060   -3.1380    2.5780 H   0  0  0  0  0  0  0  0  0  0  0  0
   -0.3240   -7.3870   -0.2910 H   0  0  0  0  0  0  0  0  0  0  0  0
   -0.2040   -6.1670    0.9660 H   0  0  0  0  0  0  0  0  0  0  0  0
    1.1600   -0.8450    0.1850 H   0  0  0  0  0  0  0  0  0  0  0  0
   -0.1240    0.1350    0.9290 H   0  0  0  0  0  0  0  0  0  0  0  0
    0.6320   -1.1700    1.8400 H   0  0  0  0  0  0  0  0  0  0  0  0
   -6.5080    1.9200   -8.1340 H   0  0  0  0  0  0  0  0  0  0  0  0
   -6.7240    0.1800   -7.9980 H   0  0  0  0  0  0  0  0  0  0  0  0
   -5.5350    0.8180   -9.1490 H   0  0  0  0  0  0  0  0  0  0  0  0
   -5.3610   -2.0410    5.7400 H   0  0  0  0  0  0  0  0  0  0  0  0
   -1.3090    1.0900    3.7990 H   0  0  0  0  0  0  0  0  0  0  0  0
   -3.7390   -4.4140    9.2970 H   0  0  0  0  0  0  0  0  0  0  0  0
   -5.0960   -3.4410    7.5200 H   0  0  0  0  0  0  0  0  0  0  0  0
   -1.7410    2.7520    2.2330 H   0  0  0  0  0  0  0  0  0  0  0  0
   -3.2520    3.9810    0.7800 H   0  0  0  0  0  0  0  0  0  0  0  0
   -5.6310    3.3490    0.6660 H   0  0  0  0  0  0  0  0  0  0  0  0
   -0.3290    0.2790    7.1380 H   0  0  0  0  0  0  0  0  0  0  0  0
    0.6450   -2.2720    5.7800 H   0  0  0  0  0  0  0  0  0  0  0  0
    0.6480   -3.1090    8.0280 H   0  0  0  0  0  0  0  0  0  0  0  0
    0.2780   -1.5200    8.7330 H   0  0  0  0  0  0  0  0  0  0  0  0
   -0.1120   -3.7010    9.9240 H   0  0  0  0  0  0  0  0  0  0  0  0
   -7.1610    1.9950    1.3200 H   0  0  0  0  0  0  0  0  0  0  0  0
    2.4870   -1.7960    7.8280 H   0  0  0  0  0  0  0  0  0  0  0  0
    2.3040   -0.1700    7.2120 H   0  0  0  0  0  0  0  0  0  0  0  0
    3.1190   -2.7290    5.7070 H   0  0  0  0  0  0  0  0  0  0  0  0
    2.8460   -1.2070    4.8710 H   0  0  0  0  0  0  0  0  0  0  0  0
    1.6260    0.5960    5.3710 H   0  0  0  0  0  0  0  0  0  0  0  0
    0.4030    0.3550    4.1930 H   0  0  0  0  0  0  0  0  0  0  0  0
    5.2740   -1.6230    5.4280 H   0  0  0  0  0  0  0  0  0  0  0  0
    4.6630   -0.1130    6.1390 H   0  0  0  0  0  0  0  0  0  0  0  0
    4.8700   -1.5560    7.1450 H   0  0  0  0  0  0  0  0  0  0  0  0
   -6.7180   -0.8230    4.9840 H   0  0  0  0  0  0  0  0  0  0  0  0
   -7.1090    0.2510    3.7440 H   0  0  0  0  0  0  0  0  0  0  0  0
   -6.1030   -1.3270    1.7640 H   0  0  0  0  0  0  0  0  0  0  0  0
  1  2  2  0
  1  4  1  0
  1 10  1  0
  2  5  1  0
  2 13  1  0
  3  6  2  0
  3  7  1  0
  3 30  1  0
  4  8  2  0
  4 19  1  0
  5  9  2  0
  5 24  1  0
  6  8  1  0
  6 29  1  0
  7  9  1  0
  7 26  1  1
  7 27  1  0
  8  9  1  0
 10 11  2  0
 10 14  1  0
 11 12  1  0
 11 17  1  0
 12 13  2  0
 12 25  1  0
 13160  1  0
 14 15  2  0
 14 18  1  0
 15 16  1  0
 15 23  1  0
 16 17  2  0
 16 20  1  0
 17161  1  0
 18 19  2  0
 19162  1  0
 20 21  2  0
 20 22  1  0
 22 28  1  0
 22163  1  0
 22164  1  0
 23 60  1  0
 24165  1  0
 25166  1  0
 26167  1  0
 26168  1  0
 26169  1  0
 27 32  1  0
 27170  1  0
 27171  1  0
 28 98  1  0
 28172  1  0
 28173  1  0
 29 31  1  0
 29174  1  0
 29175  1  0
 30176  1  0
 30177  1  0
 30178  1  0
 31179  1  0
 31180  1  0
 31181  1  0
 32127  1  0
 32182  1  0
 32183  1  0
 33 34  1  0
 33 37  2  0
 33 50  1  0
 34 41  2  0
 34 53  1  0
 35 38  2  0
 35 40  1  0
 35 54  1  0
 36 39  2  0
 36 42  1  0
 36184  1  0
 37 45  1  0
 37185  1  0
 38 44  1  0
 38 57  1  0
 39 44  1  0
 39 59  1  0
 40 46  2  0
 40186  1  0
 41 47  1  0
 41187  1  0
 42 48  1  0
 42 60  1  0
 42188  1  1
 43 45  2  0
 43 46  1  0
 43189  1  0
 44 49  2  0
 45 47  1  0
 46 49  1  0
 47 48  2  0
 48 49  1  0
 50 51  2  0
 50190  1  0
 51 52  1  0
 51191  1  0
 52 53  2  0
 52192  1  0
 53193  1  0
 54 55  2  0
 54194  1  0
 55 56  1  0
 55195  1  0
 56 57  2  0
 56196  1  0
 57 58  1  0
 58 59  2  0
 58197  1  0
 59198  1  0
 60199  1  0
 60200  1  0
 61 63  2  0
 61 65  1  0
 61 84  1  0
 62 64  2  0
 62 66  1  0
 62201  1  0
 63 67  1  0
 63 87  1  0
 64 68  1  0
 64202  1  0
 65 74  2  0
 65 90  1  0
 66 75  2  0
 66203  1  0
 67 78  2  0
 67 82  1  0
 68 79  2  0
 68204  1  0
 69 70  2  0
 69 74  1  0
 69 96  1  0
 70 76  1  0
 70205  1  0
 71 75  1  0
 71 77  1  0
 71206  1  0
 72 76  1  0
 72 77  2  0
 72207  1  0
 73 80  1  0
 73 81  2  0
 73 83  1  0
 74 78  1  0
 75 79  1  0
 76 80  2  0
 77 81  1  0
 78 80  1  0
 79 81  1  0
 82 83  2  0
 82 89  1  0
 83208  1  0
 84 85  2  0
 84 92  1  0
 85 86  1  0
 85209  1  0
 86 87  2  0
 86210  1  0
 87 88  1  0
 88 89  2  0
 88211  1  0
 89212  1  0
 90 91  1  0
 90213  1  0
 90214  1  0
 91 92  1  0
 91 98  1  0
 91215  1  6
 92 93  1  0
 92216  1  1
 93 94  2  0
 93 95  1  0
 95 97  1  0
 95217  1  0
 95218  1  0
 96219  1  0
 97156  1  0
 97220  1  0
 97221  1  0
 98222  1  0
 98223  1  0
 99100  2  0
 99102  1  0
 99112  1  0
100103  1  0
100115  1  0
101104  2  0
101105  1  0
101125  1  0
102108  2  0
102120  1  0
103109  2  0
103224  1  0
104110  1  0
104128  1  0
105111  1  0
105122  1  0
105225  1  1
106108  1  0
106110  2  0
106226  1  0
107109  1  0
107111  2  0
107227  1  0
108109  1  0
110111  1  0
112113  2  0
112116  1  0
113114  1  0
113119  1  0
114115  2  0
114129  1  0
115228  1  0
116117  2  0
116121  1  0
117118  1  0
117229  1  0
118119  2  0
118230  1  0
119231  1  0
120121  1  0
120232  1  0
120233  1  0
121234  1  0
121235  1  0
122123  2  0
122124  1  0
124127  1  0
124236  1  0
124237  1  0
125126  2  0
125238  1  0
127239  1  0
127240  1  0
128241  1  0
128242  1  0
128243  1  0
129244  1  0
129245  1  0
129246  1  0
130131  1  0
130134  2  0
130140  1  0
131135  2  0
131143  1  0
132133  2  0
132136  1  0
132144  1  0
133137  1  0
133147  1  0
134138  1  0
134148  1  0
135139  1  0
135247  1  0
136138  2  0
136248  1  0
137139  2  0
137158  1  0
138139  1  0
140141  2  0
140150  1  0
141142  1  0
141151  1  0
142143  2  0
142249  1  0
143250  1  0
144145  2  0
144251  1  0
145146  1  0
145252  1  0
146147  2  0
146253  1  0
147153  1  0
148149  1  0
148156  1  0
148254  1  1
149150  1  0
149154  1  0
149255  1  6
150256  1  0
150257  1  0
151152  2  0
151258  1  0
153259  1  0
154155  1  0
154260  1  0
154261  1  0
155157  1  0
155262  1  0
155263  1  0
156264  1  0
156265  1  0
157266  1  0
157267  1  0
157268  1  0
158159  1  0
158269  1  0
158270  1  0
159271  1  0
M  END
