
     RDKit          3D

271311  0  0  0  0  0  0  0  0999 V2000
    3.7560   -4.2910    2.3280 C   0  0  0  0  0  0  0  0  0  0  0  0
    3.6530   -3.3690    1.2660 C   0  0  0  0  0  0  0  0  0  0  0  0
    4.7880    6.1430    7.0400 C   0  0  0  0  0  0  0  0  0  0  0  0
    4.2950    5.9490    5.7320 C   0  0  0  0  0  0  0  0  0  0  0  0
    4.0690   -3.7980    3.6260 C   0  0  0  0  0  0  0  0  0  0  0  0
    3.7500   -1.9860    1.5240 C   0  0  0  0  0  0  0  0  0  0  0  0
    5.2500    5.0660    7.8540 C   0  0  0  0  0  0  0  0  0  0  0  0
    4.2560    4.6460    5.2230 C   0  0  0  0  0  0  0  0  0  0  0  0
    4.9250   -1.8400    5.1040 C   0  0  0  0  0  0  0  0  0  0  0  0
    4.0770   -0.1220    3.0360 C   0  0  0  0  0  0  0  0  0  0  0  0
    5.5250    2.4920    7.7230 N   0  0  0  0  0  0  0  0  0  0  0  0
    5.3750    0.1570    6.5880 C   0  0  0  0  0  0  0  0  0  0  0  0
    4.3420    1.7590    4.4690 C   0  0  0  0  0  0  0  0  0  0  0  0
    4.3800   -2.4130    3.8800 C   0  0  0  0  0  0  0  0  0  0  0  0
    4.0790   -1.5180    2.8210 C   0  0  0  0  0  0  0  0  0  0  0  0
    5.1940    3.7780    7.3050 C   0  0  0  0  0  0  0  0  0  0  0  0
    4.9190   -0.4390    5.3430 C   0  0  0  0  0  0  0  0  0  0  0  0
    4.4400    0.3760    4.2920 C   0  0  0  0  0  0  0  0  0  0  0  0
    5.2480    1.5520    6.7280 C   0  0  0  0  0  0  0  0  0  0  0  0
    4.7020    3.6200    6.0310 C   0  0  0  0  0  0  0  0  0  0  0  0
    4.7310    2.2840    5.6870 C   0  0  0  0  0  0  0  0  0  0  0  0
    3.8170    4.1580    3.9440 C   0  0  0  0  0  0  0  0  0  0  0  0
    3.8870    2.7370    3.5420 C   0  0  0  0  0  0  0  0  0  0  0  0
    3.5770    2.1850    2.2860 C   0  0  0  0  0  0  0  0  0  0  0  0
    3.6990    0.7970    2.0160 C   0  0  0  0  0  0  0  0  0  0  0  0
    3.4640    0.3070    0.7320 C   0  0  0  0  0  0  0  0  0  0  0  0
    3.5030   -1.0650    0.4700 C   0  0  0  0  0  0  0  0  0  0  0  0
    3.4930   -5.6670    2.0660 C   0  0  0  0  0  0  0  0  0  0  0  0
    3.2960   -6.0910    0.7420 C   0  0  0  0  0  0  0  0  0  0  0  0
    3.2510   -5.1790   -0.3060 C   0  0  0  0  0  0  0  0  0  0  0  0
    3.3850   -3.8170   -0.0520 C   0  0  0  0  0  0  0  0  0  0  0  0
    3.2260   -2.8960   -1.0900 C   0  0  0  0  0  0  0  0  0  0  0  0
    3.2710   -1.5300   -0.8290 C   0  0  0  0  0  0  0  0  0  0  0  0
    3.9550   -4.7830    4.7800 C   0  0  0  0  0  0  0  0  0  0  0  0
    2.9770   -5.9610    4.5410 C   0  0  2  0  0  0  0  0  0  0  0  0
    3.4640   -6.6680    3.2240 C   0  0  1  0  0  0  0  0  0  0  0  0
    3.7630    7.0380    4.8360 C   0  0  0  0  0  0  0  0  0  0  0  0
    3.7930    6.6410    3.3250 C   0  0  1  0  0  0  0  0  0  0  0  0
    3.2080    5.2270    3.0660 C   0  0  0  0  0  0  0  0  0  0  0  0
    5.5570   -2.7020    6.1900 C   0  0  0  0  0  0  0  0  0  0  0  0
    6.5790   -1.9570    7.0510 C   0  0  0  0  0  0  0  0  0  0  0  0
    5.9410   -0.7210    7.6670 C   0  0  0  0  0  0  0  0  0  0  0  0
    1.4490   -5.5590    4.5100 C   0  0  0  0  0  0  0  0  0  0  0  0
    1.0090   -4.0770    4.5930 C   0  0  0  0  0  0  0  0  0  0  0  0
    3.1670   -6.9200    5.7480 C   0  0  0  0  0  0  0  0  0  0  0  0
    2.7100   -7.9760    2.9180 C   0  0  0  0  0  0  0  0  0  0  0  0
    3.0900    7.7350    2.4810 C   0  0  0  0  0  0  0  0  0  0  0  0
    5.8920    3.7480   -3.2020 C   0  0  0  0  0  0  0  0  0  0  0  0
    5.7010    2.5630   -3.9790 C   0  0  0  0  0  0  0  0  0  0  0  0
    1.3740    3.2920   -2.3790 C   0  0  0  0  0  0  0  0  0  0  0  0
    4.7940    4.3660   -2.5450 C   0  0  0  0  0  0  0  0  0  0  0  0
    4.4060    1.9820   -4.0700 C   0  0  0  0  0  0  0  0  0  0  0  0
    2.3520    4.1310   -1.9970 C   0  0  0  0  0  0  0  0  0  0  0  0
    1.8960    2.2240   -3.3270 C   0  0  0  0  0  0  0  0  0  0  0  0
    3.5690    3.7390   -2.6670 C   0  0  0  0  0  0  0  0  0  0  0  0
    3.3500    2.5890   -3.4150 C   0  0  0  0  0  0  0  0  0  0  0  0
    7.1780    4.3120   -3.0630 C   0  0  0  0  0  0  0  0  0  0  0  0
    8.3010    3.6750   -3.6580 C   0  0  0  0  0  0  0  0  0  0  0  0
    8.1120    2.4950   -4.4560 C   0  0  0  0  0  0  0  0  0  0  0  0
    6.8040    1.9750   -4.6420 C   0  0  0  0  0  0  0  0  0  0  0  0
    7.3280    5.5180   -2.3260 C   0  0  0  0  0  0  0  0  0  0  0  0
    8.6210    6.0490   -2.1440 C   0  0  0  0  0  0  0  0  0  0  0  0
    9.7430    5.4400   -2.6950 C   0  0  0  0  0  0  0  0  0  0  0  0
    9.5690    4.2660   -3.4340 C   0  0  0  0  0  0  0  0  0  0  0  0
    6.1810    6.1530   -1.7890 C   0  0  0  0  0  0  0  0  0  0  0  0
    4.9020    5.5750   -1.8220 C   0  0  0  0  0  0  0  0  0  0  0  0
    9.1760    1.8160   -5.1100 C   0  0  0  0  0  0  0  0  0  0  0  0
    8.9740    0.7170   -5.9410 C   0  0  0  0  0  0  0  0  0  0  0  0
    7.6870    0.2560   -6.1590 C   0  0  0  0  0  0  0  0  0  0  0  0
    6.6090    0.8730   -5.5180 C   0  0  0  0  0  0  0  0  0  0  0  0
    4.2210    0.6480   -4.7450 C   0  0  0  0  0  0  0  0  0  0  0  0
    5.2120    0.4280   -5.8760 C   0  0  0  0  0  0  0  0  0  0  0  0
    3.6230    6.2500   -1.2140 C   0  0  1  0  0  0  0  0  0  0  0  0
    2.4520    5.2180   -0.9970 C   0  0  0  0  0  0  0  0  0  0  0  0
    6.3120    7.4170   -1.2660 O   0  0  0  0  0  0  0  0  0  0  0  0
    3.9300    6.9290    0.1740 C   0  0  0  0  0  0  0  0  0  0  0  0
   -0.0440    3.2640   -1.9250 C   0  0  0  0  0  0  0  0  0  0  0  0
    2.7240    7.3560    1.0330 C   0  0  0  0  0  0  0  0  0  0  0  0
   11.1170    5.9840   -2.4420 C   0  0  0  0  0  0  0  0  0  0  0  0
    3.1410    7.3220   -2.2170 C   0  0  0  0  0  0  0  0  0  0  0  0
   -1.8000   -1.7830   -0.6470 C   0  0  0  0  0  0  0  0  0  0  0  0
   -6.3110   -9.4090   -0.8290 C   0  0  0  0  0  0  0  0  0  0  0  0
   -6.8240   -9.4800   -2.1390 C   0  0  0  0  0  0  0  0  0  0  0  0
   -2.3730   -2.5980    0.3440 C   0  0  0  0  0  0  0  0  0  0  0  0
   -6.0860   -5.1100   -5.7190 C   0  0  0  0  0  0  0  0  0  0  0  0
   -2.3000   -1.8830   -1.9600 C   0  0  0  0  0  0  0  0  0  0  0  0
   -5.6840   -8.2410   -0.4180 C   0  0  0  0  0  0  0  0  0  0  0  0
   -5.1990   -4.0640   -5.3640 C   0  0  0  0  0  0  0  0  0  0  0  0
   -6.7060   -8.3630   -3.0280 C   0  0  0  0  0  0  0  0  0  0  0  0
   -3.3330   -3.5540   -0.0260 C   0  0  0  0  0  0  0  0  0  0  0  0
   -6.3700   -6.1610   -4.8070 C   0  0  0  0  0  0  0  0  0  0  0  0
   -3.7450   -2.9770   -3.6300 C   0  0  0  0  0  0  0  0  0  0  0  0
   -4.8790   -5.9180   -0.7550 C   0  0  0  0  0  0  0  0  0  0  0  0
   -3.2590   -2.8590   -2.3200 C   0  0  0  0  0  0  0  0  0  0  0  0
   -5.5490   -7.1480   -1.2910 C   0  0  0  0  0  0  0  0  0  0  0  0
   -4.6530   -3.9930   -4.0450 C   0  0  0  0  0  0  0  0  0  0  0  0
   -6.0370   -7.1890   -2.6090 C   0  0  0  0  0  0  0  0  0  0  0  0
   -3.7290   -3.7600   -1.3620 C   0  0  0  0  0  0  0  0  0  0  0  0
   -5.8150   -6.1040   -3.5030 C   0  0  0  0  0  0  0  0  0  0  0  0
   -4.5420   -4.8540   -1.7740 C   0  0  0  0  0  0  0  0  0  0  0  0
   -5.0150   -4.9850   -3.1070 C   0  0  0  0  0  0  0  0  0  0  0  0
   -7.2420   -8.4350   -4.3290 C   0  0  0  0  0  0  0  0  0  0  0  0
   -7.1630   -7.2860   -5.1810 C   0  0  0  0  0  0  0  0  0  0  0  0
   -0.7320   -0.9300   -0.2930 C   0  0  0  0  0  0  0  0  0  0  0  0
   -0.1850   -0.9700    0.9940 C   0  0  0  0  0  0  0  0  0  0  0  0
   -0.7580   -1.8000    1.9540 C   0  0  0  0  0  0  0  0  0  0  0  0
   -1.9410   -2.4800    1.6710 C   0  0  0  0  0  0  0  0  0  0  0  0
   -6.4270  -10.5020    0.0470 C   0  0  0  0  0  0  0  0  0  0  0  0
   -7.0600  -11.6720   -0.3640 C   0  0  0  0  0  0  0  0  0  0  0  0
   -7.5730  -11.7550   -1.6570 C   0  0  0  0  0  0  0  0  0  0  0  0
   -7.4540  -10.6730   -2.5470 C   0  0  0  0  0  0  0  0  0  0  0  0
   -7.9340  -10.7620   -3.8500 C   0  0  0  0  0  0  0  0  0  0  0  0
   -7.8190   -9.6730   -4.7150 C   0  0  0  0  0  0  0  0  0  0  0  0
   -6.6380   -5.1000   -7.0110 C   0  0  0  0  0  0  0  0  0  0  0  0
   -6.2790   -4.0970   -7.9080 C   0  0  0  0  0  0  0  0  0  0  0  0
   -5.4190   -3.1140   -7.6270 N   0  0  0  0  0  0  0  0  0  0  0  0
   -4.9160   -3.1180   -6.3730 C   0  0  0  0  0  0  0  0  0  0  0  0
   -7.6760   -6.0800   -7.4410 C   0  0  0  0  0  0  0  0  0  0  0  0
   -7.9240   -7.2780   -6.5100 C   0  0  2  0  0  0  0  0  0  0  0  0
    0.0060   -2.1570    3.1750 C   0  0  0  0  0  0  0  0  0  0  0  0
    0.3690   -1.2820    3.9480 O   0  0  0  0  0  0  0  0  0  0  0  0
    0.3440   -3.6400    3.2890 C   0  0  0  0  0  0  0  0  0  0  0  0
   -2.6900   -3.0760    2.6620 O   0  0  0  0  0  0  0  0  0  0  0  0
   -7.2300  -13.0500    0.7510 S   0  0  0  0  0  0  0  0  0  0  0  0
   -9.4540   -7.3830   -6.2950 C   0  0  0  0  0  0  0  0  0  0  0  0
   -4.2710    5.5780    0.3010 C   0  0  0  0  0  0  0  0  0  0  0  0
   -5.1940    4.5170    0.1640 C   0  0  0  0  0  0  0  0  0  0  0  0
   -6.9940    7.5640   -2.8340 C   0  0  0  0  0  0  0  0  0  0  0  0
   -4.4210    6.7490   -0.4590 C   0  0  0  0  0  0  0  0  0  0  0  0
   -6.2320    4.6110   -0.8160 C   0  0  0  0  0  0  0  0  0  0  0  0
   -5.8910    7.9710   -2.1180 C   0  0  0  0  0  0  0  0  0  0  0  0
   -7.2470    6.2460   -2.5020 N   0  0  0  0  0  0  0  0  0  0  0  0
   -5.4900    6.8650   -1.3430 C   0  0  0  0  0  0  0  0  0  0  0  0
   -6.3620    5.8120   -1.5380 C   0  0  0  0  0  0  0  0  0  0  0  0
   -3.1770    5.5070    1.1750 C   0  0  0  0  0  0  0  0  0  0  0  0
   -2.9980    4.3390    1.9470 C   0  0  0  0  0  0  0  0  0  0  0  0
   -3.9580    3.2920    1.9010 C   0  0  0  0  0  0  0  0  0  0  0  0
   -5.0670    3.3890    1.0140 C   0  0  0  0  0  0  0  0  0  0  0  0
   -2.2630    6.5990    1.2480 C   0  0  0  0  0  0  0  0  0  0  0  0
   -1.1620    6.4960    2.1010 C   0  0  0  0  0  0  0  0  0  0  0  0
   -0.9500    5.3310    2.8370 C   0  0  0  0  0  0  0  0  0  0  0  0
   -1.8450    4.2570    2.7540 C   0  0  0  0  0  0  0  0  0  0  0  0
   -2.4600    7.7530    0.4570 C   0  0  0  0  0  0  0  0  0  0  0  0
   -3.5510    7.8520   -0.4070 C   0  0  0  0  0  0  0  0  0  0  0  0
   -3.8550    2.1720    2.7650 C   0  0  0  0  0  0  0  0  0  0  0  0
   -4.8520    1.1710    2.7510 C   0  0  0  0  0  0  0  0  0  0  0  0
   -5.9950    1.2920    1.9390 C   0  0  0  0  0  0  0  0  0  0  0  0
   -6.0750    2.3830    1.0400 C   0  0  0  0  0  0  0  0  0  0  0  0
   -7.0660    3.3890   -1.0810 C   0  0  0  0  0  0  0  0  0  0  0  0
   -7.3230    2.5930    0.1930 C   0  0  0  0  0  0  0  0  0  0  0  0
   -3.7180    9.0300   -1.3690 C   0  0  0  0  0  0  0  0  0  0  0  0
   -5.1620    9.2710   -1.9450 C   0  0  1  0  0  0  0  0  0  0  0  0
   -1.5110    2.9520    3.4250 C   0  0  0  0  0  0  0  0  0  0  0  0
   -2.7530    2.1530    3.8100 C   0  0  0  0  0  0  0  0  0  0  0  0
   -4.6890   -0.0310    3.6150 C   0  0  0  0  0  0  0  0  0  0  0  0
   -4.7590    0.0690    4.8370 O   0  0  0  0  0  0  0  0  0  0  0  0
   -4.4330   -1.3450    2.9070 C   0  0  0  0  0  0  0  0  0  0  0  0
   -5.1010   10.1050   -3.2220 C   0  0  0  0  0  0  0  0  0  0  0  0
   -3.2630   -2.0910    3.5510 C   0  0  0  0  0  0  0  0  0  0  0  0
   -7.1350    0.3070    2.0440 C   0  0  0  0  0  0  0  0  0  0  0  0
    4.8170    7.1520    7.4530 H   0  0  0  0  0  0  0  0  0  0  0  0
    5.6220    5.2460    8.8580 H   0  0  0  0  0  0  0  0  0  0  0  0
    5.9270    2.2670    8.6230 H   0  0  0  0  0  0  0  0  0  0  0  0
    3.2550    2.8450    1.4830 H   0  0  0  0  0  0  0  0  0  0  0  0
    3.2320    1.0050   -0.0730 H   0  0  0  0  0  0  0  0  0  0  0  0
    3.1600   -7.1410    0.4960 H   0  0  0  0  0  0  0  0  0  0  0  0
    3.0750   -5.5480   -1.3130 H   0  0  0  0  0  0  0  0  0  0  0  0
    3.0340   -3.2300   -2.1090 H   0  0  0  0  0  0  0  0  0  0  0  0
    3.1080   -0.8320   -1.6470 H   0  0  0  0  0  0  0  0  0  0  0  0
    3.6070   -4.2760    5.6810 H   0  0  0  0  0  0  0  0  0  0  0  0
    4.9550   -5.1840    4.9750 H   0  0  0  0  0  0  0  0  0  0  0  0
    4.5120   -6.9650    3.3740 H   0  0  0  0  0  0  0  0  0  0  0  0
    2.7330    7.2560    5.1420 H   0  0  0  0  0  0  0  0  0  0  0  0
    4.3570    7.9500    4.9750 H   0  0  0  0  0  0  0  0  0  0  0  0
    4.8500    6.6090    3.0210 H   0  0  0  0  0  0  0  0  0  0  0  0
    2.1260    5.2330    3.2310 H   0  0  0  0  0  0  0  0  0  0  0  0
    3.3870    4.9510    2.0280 H   0  0  0  0  0  0  0  0  0  0  0  0
    4.7710   -3.0840    6.8500 H   0  0  0  0  0  0  0  0  0  0  0  0
    6.0920   -3.5360    5.7300 H   0  0  0  0  0  0  0  0  0  0  0  0
    6.9430   -2.6200    7.8410 H   0  0  0  0  0  0  0  0  0  0  0  0
    7.4440   -1.6730    6.4380 H   0  0  0  0  0  0  0  0  0  0  0  0
    5.1340   -1.0050    8.3510 H   0  0  0  0  0  0  0  0  0  0  0  0
    6.6930   -0.1750    8.2460 H   0  0  0  0  0  0  0  0  0  0  0  0
    0.9480   -6.0570    5.3510 H   0  0  0  0  0  0  0  0  0  0  0  0
    0.9720   -6.0130    3.6340 H   0  0  0  0  0  0  0  0  0  0  0  0
    1.8040   -3.3860    4.8740 H   0  0  0  0  0  0  0  0  0  0  0  0
    0.2670   -3.9810    5.3950 H   0  0  0  0  0  0  0  0  0  0  0  0
    3.0090   -6.3880    6.6920 H   0  0  0  0  0  0  0  0  0  0  0  0
    2.4570   -7.7510    5.7280 H   0  0  0  0  0  0  0  0  0  0  0  0
    4.1770   -7.3410    5.7680 H   0  0  0  0  0  0  0  0  0  0  0  0
    3.2120   -8.5400    2.1260 H   0  0  0  0  0  0  0  0  0  0  0  0
    1.6820   -7.7970    2.5920 H   0  0  0  0  0  0  0  0  0  0  0  0
    2.6840   -8.6460    3.7810 H   0  0  0  0  0  0  0  0  0  0  0  0
    2.1590    8.0260    2.9820 H   0  0  0  0  0  0  0  0  0  0  0  0
    3.7240    8.6310    2.4710 H   0  0  0  0  0  0  0  0  0  0  0  0
    1.7720    1.2250   -2.8960 H   0  0  0  0  0  0  0  0  0  0  0  0
    1.4090    2.2910   -4.3030 H   0  0  0  0  0  0  0  0  0  0  0  0
    8.7710    6.9340   -1.5290 H   0  0  0  0  0  0  0  0  0  0  0  0
   10.4690    3.8060   -3.8360 H   0  0  0  0  0  0  0  0  0  0  0  0
   10.2040    2.1440   -4.9970 H   0  0  0  0  0  0  0  0  0  0  0  0
    9.8150    0.2430   -6.4350 H   0  0  0  0  0  0  0  0  0  0  0  0
    7.5270   -0.5750   -6.8410 H   0  0  0  0  0  0  0  0  0  0  0  0
    3.2070    0.5490   -5.1460 H   0  0  0  0  0  0  0  0  0  0  0  0
    4.3480   -0.1310   -3.9830 H   0  0  0  0  0  0  0  0  0  0  0  0
    4.9000    0.9980   -6.7620 H   0  0  0  0  0  0  0  0  0  0  0  0
    5.2050   -0.6340   -6.1500 H   0  0  0  0  0  0  0  0  0  0  0  0
    1.4900    5.7410   -0.9260 H   0  0  0  0  0  0  0  0  0  0  0  0
    2.6130    4.7110   -0.0380 H   0  0  0  0  0  0  0  0  0  0  0  0
    6.9050    7.9090   -1.8600 H   0  0  0  0  0  0  0  0  0  0  0  0
    4.5240    7.8390    0.0360 H   0  0  0  0  0  0  0  0  0  0  0  0
    4.5650    6.2390    0.7420 H   0  0  0  0  0  0  0  0  0  0  0  0
   -0.2720    2.3080   -1.4430 H   0  0  0  0  0  0  0  0  0  0  0  0
   -0.7150    3.3910   -2.7790 H   0  0  0  0  0  0  0  0  0  0  0  0
   -0.2580    4.0610   -1.2040 H   0  0  0  0  0  0  0  0  0  0  0  0
    1.9610    6.5770    1.0800 H   0  0  0  0  0  0  0  0  0  0  0  0
    2.2410    8.2210    0.5610 H   0  0  0  0  0  0  0  0  0  0  0  0
   11.7680    5.8230   -3.3080 H   0  0  0  0  0  0  0  0  0  0  0  0
   11.5600    5.4920   -1.5710 H   0  0  0  0  0  0  0  0  0  0  0  0
   11.0840    7.0630   -2.2580 H   0  0  0  0  0  0  0  0  0  0  0  0
    3.8850    8.1180   -2.3480 H   0  0  0  0  0  0  0  0  0  0  0  0
    2.2130    7.7970   -1.8780 H   0  0  0  0  0  0  0  0  0  0  0  0
    2.9470    6.8890   -3.2070 H   0  0  0  0  0  0  0  0  0  0  0  0
   -1.8930   -1.2260   -2.7320 H   0  0  0  0  0  0  0  0  0  0  0  0
   -5.2850   -8.1600    0.5910 H   0  0  0  0  0  0  0  0  0  0  0  0
   -3.7270   -4.1990    0.7590 H   0  0  0  0  0  0  0  0  0  0  0  0
   -3.3850   -2.2430   -4.3450 H   0  0  0  0  0  0  0  0  0  0  0  0
   -5.5310   -5.4830    0.0120 H   0  0  0  0  0  0  0  0  0  0  0  0
   -3.9410   -6.2490   -0.2910 H   0  0  0  0  0  0  0  0  0  0  0  0
   -0.2660   -0.2920   -1.0410 H   0  0  0  0  0  0  0  0  0  0  0  0
    0.7150   -0.4110    1.2320 H   0  0  0  0  0  0  0  0  0  0  0  0
   -6.0270  -10.4280    1.0560 H   0  0  0  0  0  0  0  0  0  0  0  0
   -8.0700  -12.6690   -1.9770 H   0  0  0  0  0  0  0  0  0  0  0  0
   -8.4070  -11.6720   -4.2090 H   0  0  0  0  0  0  0  0  0  0  0  0
   -8.1850   -9.8260   -5.7280 H   0  0  0  0  0  0  0  0  0  0  0  0
   -6.6950   -4.0600   -8.9120 H   0  0  0  0  0  0  0  0  0  0  0  0
   -4.2440   -2.2850   -6.2090 H   0  0  0  0  0  0  0  0  0  0  0  0
   -8.6110   -5.5130   -7.5780 H   0  0  0  0  0  0  0  0  0  0  0  0
   -7.4170   -6.4660   -8.4390 H   0  0  0  0  0  0  0  0  0  0  0  0
   -7.5930   -8.1630   -7.0710 H   0  0  0  0  0  0  0  0  0  0  0  0
   -0.5690   -4.2330    3.1780 H   0  0  0  0  0  0  0  0  0  0  0  0
    0.9900   -3.8810    2.4420 H   0  0  0  0  0  0  0  0  0  0  0  0
   -6.0160  -12.9460    1.3140 H   0  0  0  0  0  0  0  0  0  0  0  0
   -9.9810   -7.3730   -7.2550 H   0  0  0  0  0  0  0  0  0  0  0  0
   -9.8260   -6.5460   -5.6900 H   0  0  0  0  0  0  0  0  0  0  0  0
   -9.7600   -8.3020   -5.7860 H   0  0  0  0  0  0  0  0  0  0  0  0
   -7.6400    8.0880   -3.5250 H   0  0  0  0  0  0  0  0  0  0  0  0
   -8.0210    5.7000   -2.8580 H   0  0  0  0  0  0  0  0  0  0  0  0
   -0.4480    7.3100    2.1850 H   0  0  0  0  0  0  0  0  0  0  0  0
   -0.0750    5.2560    3.4780 H   0  0  0  0  0  0  0  0  0  0  0  0
   -1.7420    8.5690    0.5060 H   0  0  0  0  0  0  0  0  0  0  0  0
   -8.0220    3.6590   -1.5410 H   0  0  0  0  0  0  0  0  0  0  0  0
   -6.5220    2.7670   -1.8020 H   0  0  0  0  0  0  0  0  0  0  0  0
   -7.7560    1.6310   -0.1060 H   0  0  0  0  0  0  0  0  0  0  0  0
   -8.0600    3.1160    0.8160 H   0  0  0  0  0  0  0  0  0  0  0  0
   -3.3900    9.9520   -0.8710 H   0  0  0  0  0  0  0  0  0  0  0  0
   -3.0240    8.8490   -2.2010 H   0  0  0  0  0  0  0  0  0  0  0  0
   -5.7250    9.8420   -1.1920 H   0  0  0  0  0  0  0  0  0  0  0  0
   -0.9030    3.1180    4.3230 H   0  0  0  0  0  0  0  0  0  0  0  0
   -0.9000    2.3650    2.7240 H   0  0  0  0  0  0  0  0  0  0  0  0
   -3.1720    2.5670    4.7370 H   0  0  0  0  0  0  0  0  0  0  0  0
   -2.4270    1.1290    4.0250 H   0  0  0  0  0  0  0  0  0  0  0  0
   -4.2490   -1.1480    1.8490 H   0  0  0  0  0  0  0  0  0  0  0  0
   -5.3410   -1.9580    2.9510 H   0  0  0  0  0  0  0  0  0  0  0  0
   -4.6030   11.0600   -3.0380 H   0  0  0  0  0  0  0  0  0  0  0  0
   -6.1090   10.3220   -3.6020 H   0  0  0  0  0  0  0  0  0  0  0  0
   -4.5580    9.5820   -4.0170 H   0  0  0  0  0  0  0  0  0  0  0  0
   -3.6310   -2.6400    4.4260 H   0  0  0  0  0  0  0  0  0  0  0  0
   -2.4990   -1.4010    3.9320 H   0  0  0  0  0  0  0  0  0  0  0  0
   -7.1160   -0.2570    2.9810 H   0  0  0  0  0  0  0  0  0  0  0  0
   -8.0950    0.8280    2.0460 H   0  0  0  0  0  0  0  0  0  0  0  0
   -7.1030   -0.3990    1.2100 H   0  0  0  0  0  0  0  0  0  0  0  0
  1  2  2  0
  1  5  1  0
  1 28  1  0
  2  6  1  0
  2 31  1  0
  3  4  2  0
  3  7  1  0
  3161  1  0
  4  8  1  0
  4 37  1  0
  5 14  2  0
  5 34  1  0
  6 15  2  0
  6 27  1  0
  7 16  2  0
  7162  1  0
  8 20  2  0
  8 22  1  0
  9 14  1  0
  9 17  2  0
  9 40  1  0
 10 15  1  0
 10 18  2  0
 10 25  1  0
 11 16  1  0
 11 19  1  0
 11163  1  0
 12 17  1  0
 12 19  2  0
 12 42  1  0
 13 18  1  0
 13 21  2  0
 13 23  1  0
 14 15  1  0
 16 20  1  0
 17 18  1  0
 19 21  1  0
 20 21  1  0
 22 23  2  0
 22 39  1  0
 23 24  1  0
 24 25  2  0
 24164  1  0
 25 26  1  0
 26 27  2  0
 26165  1  0
 27 33  1  0
 28 29  2  0
 28 36  1  0
 29 30  1  0
 29166  1  0
 30 31  2  0
 30167  1  0
 31 32  1  0
 32 33  2  0
 32168  1  0
 33169  1  0
 34 35  1  0
 34170  1  0
 34171  1  0
 35 36  1  0
 35 43  1  6
 35 45  1  0
 36 46  1  0
 36172  1  1
 37 38  1  0
 37173  1  0
 37174  1  0
 38 39  1  0
 38 47  1  0
 38175  1  6
 39176  1  0
 39177  1  0
 40 41  1  0
 40178  1  0
 40179  1  0
 41 42  1  0
 41180  1  0
 41181  1  0
 42182  1  0
 42183  1  0
 43 44  1  0
 43184  1  0
 43185  1  0
 44122  1  0
 44186  1  0
 44187  1  0
 45188  1  0
 45189  1  0
 45190  1  0
 46191  1  0
 46192  1  0
 46193  1  0
 47 78  1  0
 47194  1  0
 47195  1  0
 48 49  2  0
 48 51  1  0
 48 57  1  0
 49 52  1  0
 49 60  1  0
 50 53  2  0
 50 54  1  0
 50 77  1  0
 51 55  2  0
 51 66  1  0
 52 56  2  0
 52 71  1  0
 53 55  1  0
 53 74  1  0
 54 56  1  0
 54196  1  0
 54197  1  0
 55 56  1  0
 57 58  2  0
 57 61  1  0
 58 59  1  0
 58 64  1  0
 59 60  2  0
 59 67  1  0
 60 70  1  0
 61 62  2  0
 61 65  1  0
 62 63  1  0
 62198  1  0
 63 64  2  0
 63 79  1  0
 64199  1  0
 65 66  2  0
 65 75  1  0
 66 73  1  0
 67 68  2  0
 67200  1  0
 68 69  1  0
 68201  1  0
 69 70  2  0
 69202  1  0
 70 72  1  0
 71 72  1  0
 71203  1  0
 71204  1  0
 72205  1  0
 72206  1  0
 73 74  1  0
 73 76  1  1
 73 80  1  0
 74207  1  0
 74208  1  0
 75209  1  0
 76 78  1  0
 76210  1  0
 76211  1  0
 77212  1  0
 77213  1  0
 77214  1  0
 78215  1  0
 78216  1  0
 79217  1  0
 79218  1  0
 79219  1  0
 80220  1  0
 80221  1  0
 80222  1  0
 81 84  1  0
 81 86  2  0
 81104  1  0
 82 83  2  0
 82 87  1  0
 82108  1  0
 83 89  1  0
 83111  1  0
 84 90  2  0
 84107  1  0
 85 88  1  0
 85 91  2  0
 85114  1  0
 86 94  1  0
 86223  1  0
 87 95  2  0
 87224  1  0
 88 96  2  0
 88117  1  0
 89 97  2  0
 89102  1  0
 90 98  1  0
 90225  1  0
 91 99  1  0
 91103  1  0
 92 94  2  0
 92 96  1  0
 92226  1  0
 93 95  1  0
 93100  1  0
 93227  1  0
 93228  1  0
 94 98  1  0
 95 97  1  0
 96101  1  0
 97 99  1  0
 98100  2  0
 99101  2  0
100101  1  0
102103  2  0
102113  1  0
103119  1  0
104105  2  0
104229  1  0
105106  1  0
105230  1  0
106107  2  0
106120  1  0
107123  1  0
108109  2  0
108231  1  0
109110  1  0
109124  1  0
110111  2  0
110232  1  0
111112  1  0
112113  2  0
112233  1  0
113234  1  0
114115  2  0
114118  1  0
115116  1  0
115235  1  0
116117  2  0
117236  1  0
118119  1  0
118237  1  0
118238  1  0
119125  1  0
119239  1  6
120121  2  0
120122  1  0
122240  1  0
122241  1  0
123159  1  0
124242  1  0
125243  1  0
125244  1  0
125245  1  0
126127  2  0
126129  1  0
126135  1  0
127130  1  0
127138  1  0
128131  2  0
128132  1  0
128246  1  0
129133  2  0
129144  1  0
130134  2  0
130149  1  0
131133  1  0
131152  1  0
132134  1  0
132247  1  0
133134  1  0
135136  2  0
135139  1  0
136137  1  0
136142  1  0
137138  2  0
137145  1  0
138148  1  0
139140  2  0
139143  1  0
140141  1  0
140248  1  0
141142  2  0
141249  1  0
142153  1  0
143144  2  0
143250  1  0
144151  1  0
145146  2  0
145154  1  0
146147  1  0
146155  1  0
147148  2  0
147160  1  0
148150  1  0
149150  1  0
149251  1  0
149252  1  0
150253  1  0
150254  1  0
151152  1  0
151255  1  0
151256  1  0
152158  1  0
152257  1  1
153154  1  0
153258  1  0
153259  1  0
154260  1  0
154261  1  0
155156  2  0
155157  1  0
157159  1  0
157262  1  0
157263  1  0
158264  1  0
158265  1  0
158266  1  0
159267  1  0
159268  1  0
160269  1  0
160270  1  0
160271  1  0
M  END
