
     RDKit          3D

259291  0  0  0  0  0  0  0  0999 V2000
    4.5450   -5.8640   -3.9340 C   0  0  0  0  0  0  0  0  0  0  0  0
    4.8860   -6.0690   -5.2960 C   0  0  0  0  0  0  0  0  0  0  0  0
    6.8750   -1.5130   -4.0210 C   0  0  0  0  0  0  0  0  0  0  0  0
    7.1760   -1.6450   -5.3970 C   0  0  0  0  0  0  0  0  0  0  0  0
    5.0400   -4.6910   -3.3190 C   0  0  0  0  0  0  0  0  0  0  0  0
    5.6150   -5.0610   -5.9860 C   0  0  0  0  0  0  0  0  0  0  0  0
    6.1950   -2.5370   -3.3460 C   0  0  0  0  0  0  0  0  0  0  0  0
    6.7560   -2.8430   -6.0350 C   0  0  0  0  0  0  0  0  0  0  0  0
    5.7730   -3.7050   -3.9990 C   0  0  0  0  0  0  0  0  0  0  0  0
    6.0580   -3.8740   -5.3590 C   0  0  0  0  0  0  0  0  0  0  0  0
    3.7130   -6.8200   -3.2420 C   0  0  0  0  0  0  0  0  0  0  0  0
    3.3200   -7.9950   -3.9130 C   0  0  0  0  0  0  0  0  0  0  0  0
    3.7220   -8.2230   -5.2310 C   0  0  0  0  0  0  0  0  0  0  0  0
    4.4880   -7.2760   -5.9080 C   0  0  0  0  0  0  0  0  0  0  0  0
    7.2400   -0.3510   -3.3260 C   0  0  0  0  0  0  0  0  0  0  0  0
    7.8840    0.7000   -3.9700 C   0  0  0  0  0  0  0  0  0  0  0  0
    8.1780    0.6020   -5.3220 C   0  0  0  0  0  0  0  0  0  0  0  0
    7.8420   -0.5600   -6.0350 C   0  0  0  0  0  0  0  0  0  0  0  0
    3.2240   -6.6670   -1.9160 C   0  0  0  0  0  0  0  0  0  0  0  0
    2.4030   -7.6340   -1.3290 C   0  0  0  0  0  0  0  0  0  0  0  0
    2.0520   -8.7610   -1.9820 N   0  0  0  0  0  0  0  0  0  0  0  0
    2.5160   -8.9170   -3.2410 C   0  0  0  0  0  0  0  0  0  0  0  0
    8.2010   -0.5850   -7.4740 C   0  0  0  0  0  0  0  0  0  0  0  0
    8.5040    0.4400   -8.0780 O   0  0  0  0  0  0  0  0  0  0  0  0
    5.9050   -5.1790   -7.3290 O   0  0  0  0  0  0  0  0  0  0  0  0
    1.8470   -7.4560    0.0650 C   0  0  0  0  0  0  0  0  0  0  0  0
    1.1330   -0.1920    4.1510 C   0  0  0  0  0  0  0  0  0  0  0  0
    1.2420   -1.4830    4.7730 C   0  0  0  0  0  0  0  0  0  0  0  0
    0.2660   -3.6770   -3.1570 C   0  0  0  0  0  0  0  0  0  0  0  0
    1.1830   -0.0300    2.8130 N   0  0  0  0  0  0  0  0  0  0  0  0
    0.0630   -4.7830   -2.4150 C   0  0  0  0  0  0  0  0  0  0  0  0
    1.0890   -2.6900    3.9130 C   0  0  0  0  0  0  0  0  0  0  0  0
    0.8050   -2.5170   -2.3620 C   0  0  2  0  0  0  0  0  0  0  0  0
    0.5110   -5.3000    0.1340 C   0  0  0  0  0  0  0  0  0  0  0  0
    0.7270   -4.6600    1.4300 C   0  0  0  0  0  0  0  0  0  0  0  0
    1.1450   -1.2080    0.7070 N   0  0  0  0  0  0  0  0  0  0  0  0
    0.4330   -4.4910   -1.0150 C   0  0  0  0  0  0  0  0  0  0  0  0
    1.1450   -1.1390    2.0780 C   0  0  0  0  0  0  0  0  0  0  0  0
    0.7230   -3.1000   -0.9550 C   0  0  0  0  0  0  0  0  0  0  0  0
    1.0570   -2.4160    2.5570 C   0  0  0  0  0  0  0  0  0  0  0  0
    0.8880   -3.2690    1.4400 C   0  0  0  0  0  0  0  0  0  0  0  0
    0.9220   -2.5020    0.2870 C   0  0  0  0  0  0  0  0  0  0  0  0
    0.8900   -4.1650    3.9730 C   0  0  0  0  0  0  0  0  0  0  0  0
    0.8190   -5.0710    2.8230 C   0  0  0  0  0  0  0  0  0  0  0  0
    0.9760    0.9440    4.9700 C   0  0  0  0  0  0  0  0  0  0  0  0
    1.0570    0.8590    6.3830 C   0  0  0  0  0  0  0  0  0  0  0  0
    1.3150   -0.3780    6.9930 C   0  0  0  0  0  0  0  0  0  0  0  0
    1.4930   -1.5220    6.1800 C   0  0  0  0  0  0  0  0  0  0  0  0
    0.8450   -6.4270    3.0780 O   0  0  0  0  0  0  0  0  0  0  0  0
    0.6680   -4.7190    5.2300 O   0  0  0  0  0  0  0  0  0  0  0  0
    0.6920    2.2350    4.5550 O   0  0  0  0  0  0  0  0  0  0  0  0
   -0.0330   -1.2340   -2.5020 C   0  0  0  0  0  0  0  0  0  0  0  0
   -0.0230   -0.5610   -3.8850 C   0  0  0  0  0  0  0  0  0  0  0  0
   -0.5650    0.8750   -3.8300 C   0  0  0  0  0  0  0  0  0  0  0  0
   -0.5480   -6.0330   -2.9300 C   0  0  0  0  0  0  0  0  0  0  0  0
    2.2890   -2.3140   -2.6990 C   0  0  0  0  0  0  0  0  0  0  0  0
    0.8100    2.0940    7.2250 C   0  0  0  0  0  0  0  0  0  0  0  0
    0.4520   -6.8130    0.1000 C   0  0  0  0  0  0  0  0  0  0  0  0
    1.4490   -0.4780    8.4970 C   0  0  0  0  0  0  0  0  0  0  0  0
    2.0360   -2.7810    6.8230 C   0  0  0  0  0  0  0  0  0  0  0  0
    0.0480    9.3960   -6.1590 C   0  0  0  0  0  0  0  0  0  0  0  0
   -0.3600    8.0670   -6.4540 C   0  0  0  0  0  0  0  0  0  0  0  0
    4.4260    3.7340   -0.5680 C   0  0  0  0  0  0  0  0  0  0  0  0
    3.5720    3.1680   -1.5370 C   0  0  0  0  0  0  0  0  0  0  0  0
    1.1810    9.6250   -5.3210 C   0  0  0  0  0  0  0  0  0  0  0  0
    0.2660    6.9920   -5.8130 C   0  0  0  0  0  0  0  0  0  0  0  0
    4.6810    5.1360   -0.4970 C   0  0  0  0  0  0  0  0  0  0  0  0
    2.9210    4.0150   -2.4480 C   0  0  0  0  0  0  0  0  0  0  0  0
    2.7020    8.7160   -3.4850 C   0  0  0  0  0  0  0  0  0  0  0  0
    3.9960    7.3170   -1.7240 N   0  0  0  0  0  0  0  0  0  0  0  0
    1.7330    6.1390   -4.1770 C   0  0  0  0  0  0  0  0  0  0  0  0
    1.7310    8.5600   -4.5480 C   0  0  0  0  0  0  0  0  0  0  0  0
    1.2490    7.2570   -4.8540 C   0  0  0  0  0  0  0  0  0  0  0  0
    4.0320    5.9490   -1.4370 C   0  0  0  0  0  0  0  0  0  0  0  0
    3.1370    7.5770   -2.7920 C   0  0  0  0  0  0  0  0  0  0  0  0
    3.1980    5.3690   -2.3600 C   0  0  0  0  0  0  0  0  0  0  0  0
    2.6530    6.3490   -3.1660 C   0  0  0  0  0  0  0  0  0  0  0  0
    1.9850    3.7260   -3.5150 C   0  0  0  0  0  0  0  0  0  0  0  0
    1.3770    4.7730   -4.3670 C   0  0  0  0  0  0  0  0  0  0  0  0
    0.4290    4.5970   -5.3910 C   0  0  0  0  0  0  0  0  0  0  0  0
   -0.1400    5.6650   -6.0950 C   0  0  0  0  0  0  0  0  0  0  0  0
   -0.7150   10.4640   -6.6790 C   0  0  0  0  0  0  0  0  0  0  0  0
   -1.7590   10.1990   -7.5740 C   0  0  0  0  0  0  0  0  0  0  0  0
   -2.0750    8.8910   -7.9370 C   0  0  0  0  0  0  0  0  0  0  0  0
   -1.4030    7.8000   -7.3650 C   0  0  0  0  0  0  0  0  0  0  0  0
   -1.7050    6.4430   -7.6240 C   0  0  0  0  0  0  0  0  0  0  0  0
   -1.0880    5.4020   -7.0020 N   0  0  0  0  0  0  0  0  0  0  0  0
    1.8210   11.0200   -5.3010 C   0  0  2  0  0  0  0  0  0  0  0  0
    1.0750   12.0630   -6.1570 C   0  0  0  0  0  0  0  0  0  0  0  0
   -0.4350   11.8580   -6.1390 C   0  0  1  0  0  0  0  0  0  0  0  0
    3.2530    1.7080   -1.6670 C   0  0  0  0  0  0  0  0  0  0  0  0
    2.8200    1.3780   -3.1120 C   0  0  0  0  0  0  0  0  0  0  0  0
    1.6520    2.2400   -3.6850 C   0  0  1  0  0  0  0  0  0  0  0  0
    0.2790    1.9090   -3.0510 C   0  0  0  0  0  0  0  0  0  0  0  0
   -1.1330   13.0120   -6.8680 C   0  0  0  0  0  0  0  0  0  0  0  0
    3.2710   10.9820   -5.8270 C   0  0  0  0  0  0  0  0  0  0  0  0
   -2.7720    6.0470   -8.6060 C   0  0  0  0  0  0  0  0  0  0  0  0
   -1.8880   -2.8310    7.9200 C   0  0  0  0  0  0  0  0  0  0  0  0
   -1.8700   -3.4950    6.6810 C   0  0  0  0  0  0  0  0  0  0  0  0
   -0.6960   -7.1380   10.2780 C   0  0  0  0  0  0  0  0  0  0  0  0
   -0.6120   -7.7300    9.0120 C   0  0  0  0  0  0  0  0  0  0  0  0
   -1.5630   -3.5400    9.1000 C   0  0  0  0  0  0  0  0  0  0  0  0
   -1.2920   -4.8140    6.6650 C   0  0  0  0  0  0  0  0  0  0  0  0
   -0.9680   -5.7320   10.3310 C   0  0  0  0  0  0  0  0  0  0  0  0
   -0.7810   -6.9420    7.8650 C   0  0  0  0  0  0  0  0  0  0  0  0
   -1.2090   -4.9250    9.1410 C   0  0  0  0  0  0  0  0  0  0  0  0
   -1.0810   -5.5580    7.8800 C   0  0  0  0  0  0  0  0  0  0  0  0
   -2.2540   -1.4620    7.9730 C   0  0  0  0  0  0  0  0  0  0  0  0
   -2.6630   -0.7530    6.8520 C   0  0  0  0  0  0  0  0  0  0  0  0
   -2.7880   -1.4220    5.6490 C   0  0  0  0  0  0  0  0  0  0  0  0
   -2.4420   -2.7750    5.5700 C   0  0  0  0  0  0  0  0  0  0  0  0
   -0.5280   -8.0030   11.3960 C   0  0  0  0  0  0  0  0  0  0  0  0
   -0.3110   -9.3840   11.2630 C   0  0  0  0  0  0  0  0  0  0  0  0
   -0.2420   -9.9620    9.9920 C   0  0  0  0  0  0  0  0  0  0  0  0
   -0.3930   -9.1180    8.8840 C   0  0  0  0  0  0  0  0  0  0  0  0
   -0.1980  -10.1610   12.5250 C   0  0  0  0  0  0  0  0  0  0  0  0
    0.0290  -11.3630   12.5700 O   0  0  0  0  0  0  0  0  0  0  0  0
   -2.9440   -3.4910    4.3660 C   0  0  0  0  0  0  0  0  0  0  0  0
   -3.5630   -4.5430    4.5100 O   0  0  0  0  0  0  0  0  0  0  0  0
   -2.7250   -2.8860    3.0090 C   0  0  0  0  0  0  0  0  0  0  0  0
   -1.0110   -4.9740   11.9920 S   0  0  0  0  0  0  0  0  0  0  0  0
   -1.6640   -2.7920   10.2590 O   0  0  0  0  0  0  0  0  0  0  0  0
   -0.0480  -11.4350    9.7660 C   0  0  0  0  0  0  0  0  0  0  0  0
   -0.6620   -5.3040    5.3540 C   0  0  0  0  0  0  0  0  0  0  0  0
   -4.9300    0.0510    1.6730 C   0  0  0  0  0  0  0  0  0  0  0  0
   -5.3960    0.7730    2.7950 C   0  0  0  0  0  0  0  0  0  0  0  0
   -0.9490    2.1410    2.8220 C   0  0  0  0  0  0  0  0  0  0  0  0
   -3.6060    0.2260    1.1950 C   0  0  0  0  0  0  0  0  0  0  0  0
   -4.4840    1.5830    3.5180 C   0  0  0  0  0  0  0  0  0  0  0  0
   -1.3620    1.4560    1.7020 C   0  0  0  0  0  0  0  0  0  0  0  0
   -2.0560    2.3200    3.6120 N   0  0  0  0  0  0  0  0  0  0  0  0
   -2.7150    1.0780    1.8890 C   0  0  0  0  0  0  0  0  0  0  0  0
   -3.1560    1.6940    3.0560 C   0  0  0  0  0  0  0  0  0  0  0  0
   -5.7580   -0.8850    1.0220 C   0  0  0  0  0  0  0  0  0  0  0  0
   -7.0710   -1.0970    1.4870 C   0  0  0  0  0  0  0  0  0  0  0  0
   -7.5860   -0.3250    2.5650 C   0  0  0  0  0  0  0  0  0  0  0  0
   -6.7530    0.6500    3.2060 C   0  0  0  0  0  0  0  0  0  0  0  0
   -5.2600   -1.6300   -0.0820 C   0  0  0  0  0  0  0  0  0  0  0  0
   -6.0710   -2.5910   -0.6900 C   0  0  0  0  0  0  0  0  0  0  0  0
   -7.3590   -2.8200   -0.2200 C   0  0  0  0  0  0  0  0  0  0  0  0
   -7.8680   -2.0790    0.8550 C   0  0  0  0  0  0  0  0  0  0  0  0
   -3.9620   -1.4150   -0.5500 C   0  0  0  0  0  0  0  0  0  0  0  0
   -3.1380   -0.4880    0.0780 C   0  0  0  0  0  0  0  0  0  0  0  0
   -8.9280   -0.5330    2.9770 C   0  0  0  0  0  0  0  0  0  0  0  0
   -9.4420    0.3370    3.9540 C   0  0  0  0  0  0  0  0  0  0  0  0
   -8.6710    1.3610    4.5160 C   0  0  0  0  0  0  0  0  0  0  0  0
   -7.3040    1.5050    4.2120 C   0  0  0  0  0  0  0  0  0  0  0  0
   -9.1590   -2.3160    1.3110 C   0  0  0  0  0  0  0  0  0  0  0  0
   -9.6910   -1.5580    2.3570 C   0  0  0  0  0  0  0  0  0  0  0  0
   -4.9320    2.1630    4.8290 C   0  0  0  0  0  0  0  0  0  0  0  0
   -6.4080    2.5900    4.8310 C   0  0  2  0  0  0  0  0  0  0  0  0
  -11.0740   -1.9020    2.7850 C   0  0  0  0  0  0  0  0  0  0  0  0
  -11.7550   -2.7360    2.1930 O   0  0  0  0  0  0  0  0  0  0  0  0
   -9.4410    2.3190    5.3350 C   0  0  0  0  0  0  0  0  0  0  0  0
  -10.3230    1.9470    6.0980 O   0  0  0  0  0  0  0  0  0  0  0  0
    0.4200    2.5940    3.2020 C   0  0  0  0  0  0  0  0  0  0  0  0
   -6.7140    3.0190    6.2810 C   0  0  0  0  0  0  0  0  0  0  0  0
    4.8430   -4.5220   -2.2650 H   0  0  0  0  0  0  0  0  0  0  0  0
    5.9670   -2.4140   -2.2890 H   0  0  0  0  0  0  0  0  0  0  0  0
    6.9540   -2.9930   -7.0940 H   0  0  0  0  0  0  0  0  0  0  0  0
    3.4360   -9.1350   -5.7510 H   0  0  0  0  0  0  0  0  0  0  0  0
    4.7720   -7.5130   -6.9300 H   0  0  0  0  0  0  0  0  0  0  0  0
    7.0160   -0.2500   -2.2630 H   0  0  0  0  0  0  0  0  0  0  0  0
    8.1520    1.5980   -3.4170 H   0  0  0  0  0  0  0  0  0  0  0  0
    8.6710    1.4370   -5.8220 H   0  0  0  0  0  0  0  0  0  0  0  0
    3.4510   -5.7800   -1.3330 H   0  0  0  0  0  0  0  0  0  0  0  0
    2.1980   -9.8420   -3.7150 H   0  0  0  0  0  0  0  0  0  0  0  0
    8.1770   -1.5530   -7.9970 H   0  0  0  0  0  0  0  0  0  0  0  0
    5.2510   -5.7570   -7.7460 H   0  0  0  0  0  0  0  0  0  0  0  0
    2.5660   -6.9080    0.6880 H   0  0  0  0  0  0  0  0  0  0  0  0
    1.7750   -8.4580    0.5070 H   0  0  0  0  0  0  0  0  0  0  0  0
    0.0490   -3.6110   -4.2160 H   0  0  0  0  0  0  0  0  0  0  0  0
    1.2220   -0.3930    0.1190 H   0  0  0  0  0  0  0  0  0  0  0  0
    1.2560   -6.5290    3.9580 H   0  0  0  0  0  0  0  0  0  0  0  0
    0.3110   -0.5120   -1.7630 H   0  0  0  0  0  0  0  0  0  0  0  0
   -1.0790   -1.4500   -2.2410 H   0  0  0  0  0  0  0  0  0  0  0  0
    0.9680   -0.5540   -4.3380 H   0  0  0  0  0  0  0  0  0  0  0  0
   -0.6610   -1.1440   -4.5590 H   0  0  0  0  0  0  0  0  0  0  0  0
   -0.6950    1.2370   -4.8580 H   0  0  0  0  0  0  0  0  0  0  0  0
   -1.5700    0.8480   -3.3890 H   0  0  0  0  0  0  0  0  0  0  0  0
    0.1410   -6.8760   -2.8620 H   0  0  0  0  0  0  0  0  0  0  0  0
   -1.4650   -6.2660   -2.3730 H   0  0  0  0  0  0  0  0  0  0  0  0
   -0.8270   -5.9380   -3.9840 H   0  0  0  0  0  0  0  0  0  0  0  0
    2.7500   -1.5650   -2.0440 H   0  0  0  0  0  0  0  0  0  0  0  0
    2.8560   -3.2390   -2.5510 H   0  0  0  0  0  0  0  0  0  0  0  0
    2.4430   -2.0170   -3.7410 H   0  0  0  0  0  0  0  0  0  0  0  0
    1.4460    2.1150    8.1160 H   0  0  0  0  0  0  0  0  0  0  0  0
    1.0350    3.0270    6.6950 H   0  0  0  0  0  0  0  0  0  0  0  0
   -0.2420    2.1190    7.5320 H   0  0  0  0  0  0  0  0  0  0  0  0
   -0.1810   -7.1780   -0.7090 H   0  0  0  0  0  0  0  0  0  0  0  0
   -0.0720   -7.1590    0.9970 H   0  0  0  0  0  0  0  0  0  0  0  0
    0.7770    0.2170    9.0110 H   0  0  0  0  0  0  0  0  0  0  0  0
    2.4820   -0.2710    8.7930 H   0  0  0  0  0  0  0  0  0  0  0  0
    1.1620   -1.4670    8.8670 H   0  0  0  0  0  0  0  0  0  0  0  0
    2.5840   -3.4010    6.1060 H   0  0  0  0  0  0  0  0  0  0  0  0
    1.2360   -3.3580    7.2940 H   0  0  0  0  0  0  0  0  0  0  0  0
    2.7810   -2.5360    7.5850 H   0  0  0  0  0  0  0  0  0  0  0  0
    4.9170    3.0850    0.1560 H   0  0  0  0  0  0  0  0  0  0  0  0
    5.3500    5.5450    0.2520 H   0  0  0  0  0  0  0  0  0  0  0  0
    3.0640    9.6960   -3.1970 H   0  0  0  0  0  0  0  0  0  0  0  0
    4.5230    8.0210   -1.2280 H   0  0  0  0  0  0  0  0  0  0  0  0
    0.0800    3.5960   -5.6350 H   0  0  0  0  0  0  0  0  0  0  0  0
   -2.3560   11.0010   -7.9970 H   0  0  0  0  0  0  0  0  0  0  0  0
   -2.8880    8.7370   -8.6400 H   0  0  0  0  0  0  0  0  0  0  0  0
    1.8150   11.3750   -4.2640 H   0  0  0  0  0  0  0  0  0  0  0  0
    1.3390   13.0700   -5.8010 H   0  0  0  0  0  0  0  0  0  0  0  0
    1.4220   12.0160   -7.2010 H   0  0  0  0  0  0  0  0  0  0  0  0
   -0.7840   11.8840   -5.0970 H   0  0  0  0  0  0  0  0  0  0  0  0
    4.1330    1.1100   -1.4140 H   0  0  0  0  0  0  0  0  0  0  0  0
    2.4580    1.4510   -0.9600 H   0  0  0  0  0  0  0  0  0  0  0  0
    2.5650    0.3220   -3.1740 H   0  0  0  0  0  0  0  0  0  0  0  0
    3.6920    1.5100   -3.7680 H   0  0  0  0  0  0  0  0  0  0  0  0
    1.6100    2.0310   -4.7640 H   0  0  0  0  0  0  0  0  0  0  0  0
    0.3870    1.6080   -2.0070 H   0  0  0  0  0  0  0  0  0  0  0  0
   -0.3380    2.8190   -3.0120 H   0  0  0  0  0  0  0  0  0  0  0  0
   -0.9030   13.0150   -7.9390 H   0  0  0  0  0  0  0  0  0  0  0  0
   -0.8230   13.9780   -6.4510 H   0  0  0  0  0  0  0  0  0  0  0  0
   -2.2180   12.9420   -6.7480 H   0  0  0  0  0  0  0  0  0  0  0  0
    3.9200   10.3140   -5.2580 H   0  0  0  0  0  0  0  0  0  0  0  0
    3.3010   10.6350   -6.8680 H   0  0  0  0  0  0  0  0  0  0  0  0
    3.7240   11.9820   -5.7940 H   0  0  0  0  0  0  0  0  0  0  0  0
   -2.8490    4.9570   -8.6810 H   0  0  0  0  0  0  0  0  0  0  0  0
   -3.7500    6.4300   -8.2920 H   0  0  0  0  0  0  0  0  0  0  0  0
   -2.5290    6.4260   -9.6050 H   0  0  0  0  0  0  0  0  0  0  0  0
   -0.7570   -7.4780    6.9210 H   0  0  0  0  0  0  0  0  0  0  0  0
   -2.2460   -0.9320    8.9290 H   0  0  0  0  0  0  0  0  0  0  0  0
   -2.9390    0.2920    6.9390 H   0  0  0  0  0  0  0  0  0  0  0  0
   -3.2180   -0.9030    4.7990 H   0  0  0  0  0  0  0  0  0  0  0  0
   -0.5990   -7.5960   12.4060 H   0  0  0  0  0  0  0  0  0  0  0  0
   -0.3420   -9.5600    7.8850 H   0  0  0  0  0  0  0  0  0  0  0  0
   -0.3410   -9.5920   13.4590 H   0  0  0  0  0  0  0  0  0  0  0  0
   -3.6580   -2.4190    2.6880 H   0  0  0  0  0  0  0  0  0  0  0  0
   -2.4480   -3.6780    2.3070 H   0  0  0  0  0  0  0  0  0  0  0  0
   -1.9190   -2.1560    3.0270 H   0  0  0  0  0  0  0  0  0  0  0  0
    0.3210   -4.8430   12.1070 H   0  0  0  0  0  0  0  0  0  0  0  0
   -1.7360   -3.4070   11.0100 H   0  0  0  0  0  0  0  0  0  0  0  0
   -0.8790  -12.0060   10.1950 H   0  0  0  0  0  0  0  0  0  0  0  0
   -0.0160  -11.6760    8.6980 H   0  0  0  0  0  0  0  0  0  0  0  0
    0.9000  -11.7710   10.1960 H   0  0  0  0  0  0  0  0  0  0  0  0
   -1.2780   -5.1010    4.4830 H   0  0  0  0  0  0  0  0  0  0  0  0
   -0.5220   -6.3860    5.3430 H   0  0  0  0  0  0  0  0  0  0  0  0
   -0.7160    1.1680    0.8880 H   0  0  0  0  0  0  0  0  0  0  0  0
   -2.0460    2.7930    4.5070 H   0  0  0  0  0  0  0  0  0  0  0  0
   -5.7050   -3.1740   -1.5320 H   0  0  0  0  0  0  0  0  0  0  0  0
   -7.9670   -3.5790   -0.7080 H   0  0  0  0  0  0  0  0  0  0  0  0
   -3.5720   -1.9820   -1.3940 H   0  0  0  0  0  0  0  0  0  0  0  0
   -2.1240   -0.3590   -0.2880 H   0  0  0  0  0  0  0  0  0  0  0  0
  -10.4860    0.2790    4.2560 H   0  0  0  0  0  0  0  0  0  0  0  0
   -9.7660   -3.0890    0.8430 H   0  0  0  0  0  0  0  0  0  0  0  0
   -4.3090    3.0280    5.0840 H   0  0  0  0  0  0  0  0  0  0  0  0
   -4.7630    1.3970    5.5980 H   0  0  0  0  0  0  0  0  0  0  0  0
   -6.5140    3.4730    4.1850 H   0  0  0  0  0  0  0  0  0  0  0  0
  -11.4840   -1.4050    3.6750 H   0  0  0  0  0  0  0  0  0  0  0  0
   -9.2070    3.3870    5.1940 H   0  0  0  0  0  0  0  0  0  0  0  0
    0.4300    3.6910    3.1640 H   0  0  0  0  0  0  0  0  0  0  0  0
    1.2120    2.2780    2.5160 H   0  0  0  0  0  0  0  0  0  0  0  0
   -5.8570    3.5340    6.7300 H   0  0  0  0  0  0  0  0  0  0  0  0
   -6.9530    2.1580    6.9160 H   0  0  0  0  0  0  0  0  0  0  0  0
   -7.5330    3.7380    6.3360 H   0  0  0  0  0  0  0  0  0  0  0  0
  1  2  1  0
  1  5  2  0
  1 11  1  0
  2  6  2  0
  2 14  1  0
  3  4  2  0
  3  7  1  0
  3 15  1  0
  4  8  1  0
  4 18  1  0
  5  9  1  0
  5158  1  0
  6 10  1  0
  6 25  1  0
  7  9  2  0
  7159  1  0
  8 10  2  0
  8160  1  0
  9 10  1  0
 11 12  2  0
 11 19  1  0
 12 13  1  0
 12 22  1  0
 13 14  2  0
 13161  1  0
 14162  1  0
 15 16  2  0
 15163  1  0
 16 17  1  0
 16164  1  0
 17 18  2  0
 17165  1  0
 18 23  1  0
 19 20  2  0
 19166  1  0
 20 21  1  0
 20 26  1  0
 21 22  2  0
 22167  1  0
 23 24  2  0
 23168  1  0
 25169  1  0
 26 58  1  0
 26170  1  0
 26171  1  0
 27 28  2  0
 27 30  1  0
 27 45  1  0
 28 32  1  0
 28 48  1  0
 29 31  2  0
 29 33  1  0
 29172  1  0
 30 38  2  0
 31 37  1  0
 31 55  1  0
 32 40  2  0
 32 43  1  0
 33 39  1  0
 33 52  1  1
 33 56  1  0
 34 35  1  0
 34 37  2  0
 34 58  1  0
 35 41  2  0
 35 44  1  0
 36 38  1  0
 36 42  1  0
 36173  1  0
 37 39  1  0
 38 40  1  0
 39 42  2  0
 40 41  1  0
 41 42  1  0
 43 44  2  0
 43 50  1  0
 44 49  1  0
 45 46  2  0
 45 51  1  0
 46 47  1  0
 46 57  1  0
 47 48  2  0
 47 59  1  0
 48 60  1  0
 49174  1  0
 50124  1  0
 51156  1  0
 52 53  1  0
 52175  1  0
 52176  1  0
 53 54  1  0
 53177  1  0
 53178  1  0
 54 94  1  0
 54179  1  0
 54180  1  0
 55181  1  0
 55182  1  0
 55183  1  0
 56184  1  0
 56185  1  0
 56186  1  0
 57187  1  0
 57188  1  0
 57189  1  0
 58190  1  0
 58191  1  0
 59192  1  0
 59193  1  0
 59194  1  0
 60195  1  0
 60196  1  0
 60197  1  0
 61 62  2  0
 61 65  1  0
 61 82  1  0
 62 66  1  0
 62 85  1  0
 63 64  2  0
 63 67  1  0
 63198  1  0
 64 68  1  0
 64 91  1  0
 65 72  2  0
 65 88  1  0
 66 73  2  0
 66 81  1  0
 67 74  2  0
 67199  1  0
 68 76  2  0
 68 78  1  0
 69 72  1  0
 69 75  2  0
 69200  1  0
 70 74  1  0
 70 75  1  0
 70201  1  0
 71 73  1  0
 71 77  2  0
 71 79  1  0
 72 73  1  0
 74 76  1  0
 75 77  1  0
 76 77  1  0
 78 79  2  0
 78 93  1  0
 79 80  1  0
 80 81  2  0
 80202  1  0
 81 87  1  0
 82 83  2  0
 82 90  1  0
 83 84  1  0
 83203  1  0
 84 85  2  0
 84204  1  0
 85 86  1  0
 86 87  2  0
 86 97  1  0
 88 89  1  0
 88 96  1  0
 88205  1  1
 89 90  1  0
 89206  1  0
 89207  1  0
 90 95  1  0
 90208  1  1
 91 92  1  0
 91209  1  0
 91210  1  0
 92 93  1  0
 92211  1  0
 92212  1  0
 93 94  1  0
 93213  1  6
 94214  1  0
 94215  1  0
 95216  1  0
 95217  1  0
 95218  1  0
 96219  1  0
 96220  1  0
 96221  1  0
 97222  1  0
 97223  1  0
 97224  1  0
 98 99  1  0
 98102  2  0
 98108  1  0
 99103  2  0
 99111  1  0
100101  2  0
100104  1  0
100112  1  0
101105  1  0
101115  1  0
102106  1  0
102122  1  0
103107  1  0
103124  1  0
104106  2  0
104121  1  0
105107  2  0
105225  1  0
106107  1  0
108109  2  0
108226  1  0
109110  1  0
109227  1  0
110111  2  0
110228  1  0
111118  1  0
112113  2  0
112229  1  0
113114  1  0
113116  1  0
114115  2  0
114123  1  0
115230  1  0
116117  2  0
116231  1  0
118119  2  0
118120  1  0
120232  1  0
120233  1  0
120234  1  0
121235  1  0
122236  1  0
123237  1  0
123238  1  0
123239  1  0
124240  1  0
124241  1  0
125126  2  0
125128  1  0
125134  1  0
126129  1  0
126137  1  0
127130  2  0
127131  1  0
127156  1  0
128132  2  0
128143  1  0
129133  2  0
129150  1  0
130132  1  0
130242  1  0
131133  1  0
131243  1  0
132133  1  0
134135  2  0
134138  1  0
135136  1  0
135141  1  0
136137  2  0
136144  1  0
137147  1  0
138139  2  0
138142  1  0
139140  1  0
139244  1  0
140141  2  0
140245  1  0
141148  1  0
142143  2  0
142246  1  0
143247  1  0
144145  2  0
144149  1  0
145146  1  0
145248  1  0
146147  2  0
146154  1  0
147151  1  0
148149  2  0
148249  1  0
149152  1  0
150151  1  0
150250  1  0
150251  1  0
151157  1  0
151252  1  6
152153  2  0
152253  1  0
154155  2  0
154254  1  0
156255  1  0
156256  1  0
157257  1  0
157258  1  0
157259  1  0
M  END
