18

C      48.377649999999988     48.678639999999987     47.316979999999987
C      47.835550000000005     47.417590000000004     47.918680000000009
C      49.426549999999999     49.132840000000002     47.991680000000002
C      48.554849999999995     46.639449999999997     48.785778000000008
C      47.547950000000007     49.372839999999997     46.391080000000002
C      46.909849999999999     46.644279999999995     47.018780000000007
C      49.993249999999996     48.558139999999995     49.124488000000014
C      49.553350000000002     47.239509999999996     49.667910000000006
C      46.369850000000007     48.779139999999998     45.931880000000007
C      46.002749999999999     47.403130000000004     46.323779999999999
H      49.811650000000007     50.340140000000005     47.732579999999999
H      48.124249999999996     45.657160000000005     48.890503000000010
H      47.847550000000005     50.428539999999998     46.161180000000002
H      46.891950000000001     45.571460000000002     47.148880000000005
H      50.579450000000001     48.860939999999999     49.978890000000007
H      49.371850000000002     46.757890000000003     50.670320000000004
H      45.635250000000006     49.332539999999995     45.329679999999996
H      45.420549999999999     47.017539999999997     45.477180000000004
