54

C      47.579849999999993     48.418799999999997     50.284549999999996
C      47.932649999999995     46.966100000000004     50.145450000000004
C      47.170450000000002     48.596299999999999     45.253149999999998
C      48.112349999999992     47.384500000000003     45.260550000000002
C      47.328649999999996     49.187600000000003     49.042650000000002
C      47.842449999999999     46.538200000000003     48.678649999999998
C      46.971850000000003     49.396200000000007     46.350349999999999
C      48.507949999999994     46.910400000000010     46.563350000000000
C      47.473349999999996     48.905700000000010     47.636150000000001
C      47.953249999999997     47.551300000000005     47.687550000000002
C      47.440550000000002     48.921000000000006     51.631549999999997
C      46.892150000000001     47.881900000000002     52.532449999999997
C      46.957849999999993     46.523800000000008     52.456049999999998
C      47.566050000000004     46.142100000000006     51.210050000000003
C      46.715850000000003     49.043000000000006     44.012149999999998
C      46.739450000000005     48.242100000000008     42.835250000000002
C      47.752849999999995     47.155400000000007     42.914050000000003
C      48.381850000000000     46.645500000000006     44.072550000000000
C      47.380849999999995     50.347900000000010     51.755450000000003
C      47.362049999999996     50.616100000000003     53.172750000000001
C      47.019649999999999     49.668200000000013     54.160750000000000
C      46.458849999999998     48.453900000000004     53.904249999999998
C      46.944950000000006     50.527000000000001     49.408149999999999
C      47.335049999999995     51.177599999999998     50.620950000000001
C      47.815849999999998     45.189100000000010     48.372149999999998
C      47.505650000000003     44.293800000000005     49.541750000000000
C      47.274950000000004     44.738400000000006     50.967250000000000
C      46.829549999999998     51.555400000000006     48.194049999999997
C      47.751149999999996     52.111200000000011     53.464350000000003
C      49.146649999999994     45.331300000000006     44.265749999999997
C      47.498450000000005     46.564700000000002     41.540349999999997
H      45.779150000000001     51.537800000000004     47.906950000000002
H      49.021349999999998     45.958300000000008     46.746949999999998
H      46.604749999999996     45.849200000000010     53.244250000000001
H      46.168149999999997     49.899000000000001     44.119950000000003
H      46.064149999999998     48.323200000000007     41.897750000000002
H      47.282749999999993     50.047400000000010     55.234050000000003
H      45.830950000000001     47.905300000000011     54.482350000000004
H      46.426550000000006     50.315200000000004     46.472850000000001
H      46.871650000000002     52.618499999999997     52.935349999999993
H      47.754350000000002     52.278900000000007     50.804450000000010
H      47.756749999999997     44.832900000000009     47.268050000000002
H      48.149450000000002     43.381500000000003     49.303550000000001
H      47.137550000000005     44.055600000000005     51.914850000000001
H      47.661349999999999     51.653400000000005     47.518749999999997
H      47.019149999999996     52.462800000000001     48.901249999999997
H      48.638750000000002     52.182200000000009     52.712350000000001
H      47.938349999999986     52.252700000000004     54.498950000000001
H      48.645349999999993     44.452400000000004     43.688050000000004
H      50.220849999999999     45.434100000000001     43.914749999999998
H      48.501549999999995     46.061600000000006     41.106050000000003
H      47.203649999999996     47.374600000000001     40.765949999999997
H      46.674250000000001     45.747400000000006     41.577649999999998
H      49.305949999999996     44.863300000000010     45.188450000000003
