5

C      48.025899999999993     48.175814999999993     48.083800000000004
H      48.762400000000000     48.580614999999995     48.919499999999999
H      48.386500000000005     47.298095000000004     48.011099999999999
H      47.812300000000000     48.701904999999996     47.080500000000001
H      47.237600000000000     48.369145000000003     48.826800000000006
