18

C      47.558399999999992     48.416349999999994     48.707249999999988
C      47.864699999999999     47.421450000000000     47.617249999999999
C      46.313900000000004     47.870350000000002     49.197850000000003
C      46.818600000000004     46.750850000000000     47.074649999999991
C      48.570999999999998     49.256449999999994     49.131050000000002
C      49.327600000000004     47.144050000000000     47.322749999999999
C      45.273899999999998     46.975249999999996     48.670349999999999
C      45.483100000000007     46.626750000000001     47.343649999999997
C      49.848000000000013     48.824450000000006     48.891850000000005
C      50.353900000000010     47.855049999999999     47.980850000000004
H      45.633800000000008     48.274549999999998     49.916449999999998
H      47.283200000000008     46.334949999999999     46.043449999999993
H      48.295000000000002     49.933550000000004     49.956550000000007
H      49.961200000000005     46.540150000000004     46.759649999999993
H      44.356200000000001     46.899250000000002     49.333249999999992
H      44.917600000000007     46.066449999999996     46.747450000000001
H      50.549499999999995     49.419549999999994     49.438549999999992
H      51.643799999999999     47.615549999999999     47.861649999999997
