98

C      48.548279999999991     49.377829999999975     52.673899999999996
C      48.792919999999995     49.121239999999979     51.210599999999999
C      52.392710000000008     51.982469999999985     51.585800000000006
C      49.604170000000011     50.133009999999977     53.315600000000003
C      49.879290000000012     49.723429999999986     50.366100000000003
C      51.961700000000008     51.420269999999981     52.844700000000003
C      51.789590000000004     51.425679999999979     50.500600000000006
C      50.862960000000001     50.575599999999980     52.456400000000002
C      50.706659999999999     50.521779999999985     51.036600000000007
C      47.237866299999993     48.931839999999980     53.208200000000005
C      46.466490000000007     47.906189999999981     52.556800000000003
C      47.083990000000000     47.378319999999981     51.413200000000003
C      47.955128000000002     48.176609999999982     50.530100000000004
C      46.428390000000022     48.041399999999982     41.547100000000000
C      45.982590000000016     49.780269999999980     55.039900000000003
C      47.178542399999998     49.440969999999986     54.529899999999998
C      50.119560000000007     49.652029999999982     48.910000000000004
C      50.712239999999994     48.783169999999984     48.119500000000002
C      47.794331999999997     47.657449999999983     49.149300000000004
C      52.015249999999995     51.772089999999984     49.174199999999999
C      50.849600000000009     49.037759999999984     46.605200000000004
C      51.355410000000006     47.586459999999981     48.849400000000003
C      47.286428000000001     51.681479999999986     46.691800000000001
C      47.041490000000010     51.242099999999986     45.198100000000004
C      43.784289999999999     43.514690000000009     46.167500000000004
C      47.575461000000004     50.464999999999982     47.370000000000005
C      47.181612799999996     49.871129999999972     44.775700000000001
C      45.133390000000006     43.986789999999992     46.479600000000005
C      43.833790000000008     44.720889999999997     42.834900000000005
C      46.751690000000011     48.035469999999982     48.185000000000002
C      46.714590000000015     47.133333999999984     44.059200000000004
C      44.002090000000010     44.334289999999974     44.125300000000003
C      47.206522699999994     49.061589999999981     47.121900000000004
C      45.984489999999994     45.953189999999978     43.598600000000005
C      47.146389999999997     48.762809999999980     45.797700000000006
C      45.772790000000015     45.208189999999995     45.814200000000000
C      46.947589999999991     47.383139999999983     45.511200000000002
C      46.598190000000031     46.253989999999988     46.349699999999999
C      45.306289999999990     45.119589999999995     44.431700000000006
C      46.981989999999996     49.587829999999983     43.369700000000002
C      46.911090000000016     48.219599999999986     43.036299999999997
C      47.623214000000004     53.081879999999977     46.869500000000002
C      47.170647599999995     53.964099999999981     45.834400000000002
C      47.232402899999997     53.500579999999978     44.490099999999998
C      47.144490000000005     52.173039999999979     44.087600000000002
C      47.002589999999998     51.727919999999983     42.635400000000004
C      47.379865999999993     50.600799999999985     42.358000000000004
C      48.710170000000005     54.362289999999980     48.585400000000007
C      47.789578000000006     53.401849999999975     48.331400000000002
C      45.737290000000016     43.798489999999987     47.689400000000006
C      47.179887399999998     43.346489999999989     47.593699999999998
C      47.545933000000005     41.859589999999997     47.377800000000001
C      43.613490000000027     45.107289999999971     41.512799999999999
C      47.837890000000002     50.448349999999984     40.879200000000004
H      53.355509999999995     52.537119999999980     51.515500000000003
H      52.373040000000003     51.566749999999978     53.828299999999999
H      49.624300000000005     50.327979999999990     54.413100000000000
H      45.741890000000012     47.509459999999983     53.314599999999999
H      45.381990000000002     47.776859999999985     41.587699999999998
H      47.244333400000002     47.428279999999980     41.085400000000000
H      45.253289999999993     49.286679999999983     54.401399999999995
H      45.994090000000014     50.699779999999983     55.916499999999999
H      47.976951999999997     50.012009999999982     54.827200000000005
H      49.789479999999998     50.546349999999983     48.230699999999999
H      48.031276000000005     46.624877999999981     48.772900000000007
H      46.031390000000016     46.001589999999986     50.417800000000000
H      49.886740000000003     49.188879999999983     46.202100000000002
H      51.519350000000003     48.263229999999986     45.890700000000002
H      51.398889999999994     49.990559999999981     46.069000000000003
H      52.070520000000002     47.157475999999981     48.368700000000004
H      50.556060000000002     47.074298999999982     49.470100000000002
H      51.642499999999998     48.160139999999984     49.776800000000001
H      46.679690000000008     46.154789999999998     47.461600000000004
H      43.122890000000027     43.010489999999983     46.895499999999998
H      45.833089999999999     45.940289999999976     42.442100000000003
H      45.744090000000000     47.814939999999986     48.414000000000001
H      46.251790000000000     49.277249999999981     41.099400000000003
H      46.960190000000026     54.982249999999986     46.104500000000002
H      47.294745000000006     54.341229999999989     43.832599999999999
H      46.477990000000005     52.425829999999983     41.783000000000001
H      47.365019000000004     50.795229999999982     48.362900000000003
H      48.858670000000004     54.455499999999979     49.605600000000003
H      47.701572999999996     52.557069999999975     49.176900000000003
H      49.116540000000001     55.071809999999992     47.686500000000002
H      47.872184000000004     43.984789999999968     46.855200000000004
H      47.665294000000003     43.513790000000000     48.592100000000002
H      47.786705999999995     41.645689999999995     46.118600000000001
H      46.946089999999998     40.928190000000008     47.641000000000005
H      48.715050000000005     41.688290000000002     47.305199999999999
H      44.835190000000011     44.848489999999991     41.220900000000000
H      42.644490000000005     45.155990000000010     40.766700000000000
H      47.130690000000016     50.803899999999977     40.083500000000001
H      48.415220000000005     49.576489999999986     41.103900000000003
H      48.694639999999993     51.297559999999983     40.663800000000002
N      43.326290000000000     43.634189999999990     44.970900000000000
O      52.133399999999995     51.978249999999981     48.000100000000003
O      46.793290000000027     46.097089999999980     51.171000000000006
O      45.594390000000004     44.557390000000005     48.616799999999998
