25

C      48.015949999999989     50.911954999999985     47.985649999999993
C      48.392350000000000     50.842154999999991     49.326749999999990
C      48.206849999999996     46.305435000000010     48.250749999999996
C      48.188049999999997     49.754483999999991     47.153049999999993
C      48.705249999999999     49.504388999999989     49.702349999999996
C      48.143449999999994     47.199935000000011     47.115650000000002
C      48.494049999999994     46.924335000000006     49.506050000000002
C      48.124850000000002     48.404335000000003     47.791650000000004
C      48.175649999999997     48.305034999999990     49.242949999999993
C      48.313150000000000     49.672565999999989     45.645550000000000
C      47.521449999999994     48.590034999999986     45.061350000000004
C      47.684750000000001     47.201334999999993     45.655349999999999
C      48.398850000000003     46.429834999999983     50.899050000000003
C      48.707550000000005     45.035934999999988     51.149850000000001
H      47.443350000000002     51.847064999999994     47.699250000000006
H      48.671349999999997     51.713654999999989     50.017349999999993
H      48.670250000000003     45.316734999999994     48.221350000000001
H      49.403449999999999     49.388076119999994     50.577649999999991
H      48.597950000000004     50.511054999999992     44.986350000000002
H      47.174649999999993     48.618334999999988     43.833150000000003
H      48.388349999999996     46.423234999999998     45.243650000000002
H      46.596550000000001     46.584934999999994     45.521349999999998
H      47.856950000000005     47.285034999999979     51.574950000000001
H      48.977550000000001     44.796634999999995     52.166849999999997
O      49.069049999999997     44.152935000000006     50.363950000000003
