49

C      45.389399999999995     49.638749999999987     44.586999999999996
C      47.510300000000008     48.630950000000006     47.533100000000005
C      46.406399999999998     47.695150000000005     48.003700000000009
C      45.746100000000006     45.396849999999993     46.986500000000007
C      47.514200000000002     49.111950000000000     46.162199999999999
C      45.059500000000007     48.093250000000005     47.392200000000003
C      46.890100000000004     46.117650000000005     47.581299999999999
C      46.426900000000010     49.352849999999997     45.315300000000008
C      44.186200000000007     47.170750000000005     47.004199999999997
C      48.711199999999998     48.064349999999997     47.875100000000003
C      49.014800000000001     47.623550000000002     49.306800000000010
C      47.906600000000005     47.188250000000004     50.130400000000009
C      46.687300000000000     47.621350000000000     49.677599999999998
C      49.935099999999998     48.311150000000005     47.087500000000006
C      51.273500000000006     48.236849999999997     47.620800000000003
C      51.526400000000002     48.064950000000003     48.969700000000003
C      50.356100000000005     47.508850000000002     49.717900000000000
C      48.695000000000000     49.876950000000001     45.722999999999999
C      49.852700000000006     49.466050000000003     46.130200000000002
C      44.558799999999998     49.348949999999995     47.853800000000007
C      44.836800000000004     48.170849999999994     51.555599999999998
C      45.686900000000001     47.974849999999996     50.622399999999999
C      45.273500000000006     50.416750000000000     48.553800000000010
C      48.081800000000001     47.157050000000005     51.683700000000002
C      48.157199999999996     45.548350000000006     47.355699999999999
C      50.849899999999998     46.720450000000007     50.948000000000008
H      45.060300000000005     50.619650000000000     44.127600000000001
H      45.980800000000002     44.459449999999997     46.242600000000010
H      43.160500000000006     47.483650000000004     46.703500000000005
H      52.226599999999998     47.992449999999998     46.991500000000002
H      44.772800000000004     48.948749999999997     43.798400000000001
H      50.947700000000005     50.055349999999997     46.236500000000007
H      48.572600000000001     50.376349999999995     44.764700000000005
H      43.498600000000003     49.642350000000000     48.227400000000003
H      44.177799999999998     47.443549999999995     51.925300000000007
H      44.736600000000003     49.171349999999997     51.791800000000009
H      49.036400000000008     47.713850000000001     52.151600000000002
H      52.803900000000006     47.781050000000000     50.355300000000000
H      46.230000000000004     50.004349999999995     49.149600000000007
H      44.894900000000000     51.540550000000003     48.596600000000009
H      50.971100000000000     45.737950000000005     50.691900000000004
H      47.483600000000003     47.987649999999995     52.201599999999999
H      47.950399999999995     46.251650000000005     52.178800000000010
H      47.888799999999996     44.732250000000001     46.581699999999998
H      49.028200000000005     46.017850000000003     47.850700000000003
H      51.609900000000003     47.558550000000004     51.434100000000001
H      50.053999999999995     46.387049999999995     51.564599999999999
N      44.553500000000007     45.936649999999993     46.677300000000002
O      52.839499999999994     47.874550000000006     49.342700000000008
