18

C      47.676399999999994     47.315974999999995     47.988399999999999
C      48.080399999999997     48.626774999999995     48.258199999999988
C      48.248000000000005     46.735875000000007     46.807800000000000
C      48.884299999999996     49.451774999999998     47.275499999999994
C      46.802700000000002     46.542074999999997     48.757599999999996
C      47.358599999999996     49.327174999999997     49.326699999999988
C      49.228700000000003     47.376075000000000     45.993200000000002
C      49.637000000000000     48.673774999999992     46.346099999999993
C      46.242100000000001     47.261975000000007     49.927300000000002
C      46.491299999999995     48.467775000000003     50.131299999999996
H      47.954099999999997     45.826554999999999     46.567499999999995
H      48.970500000000001     50.455074999999994     47.508899999999997
H      46.417100000000005     45.544925000000006     48.736199999999997
H      47.383399999999995     50.407775000000001     49.570699999999988
H      49.605699999999999     46.702974999999995     45.060400000000001
H      50.509900000000002     48.650175000000004     45.606399999999994
H      45.490099999999998     46.832075000000003     50.547999999999988
H      45.904299999999999     48.957774999999998     50.939599999999999
