18

C      47.446549999999988     48.165299999999995     48.700149999999994
C      48.427549999999997     48.516800000000003     47.623550000000002
C      46.098249999999993     48.218800000000002     48.157649999999997
C      48.026250000000005     49.190299999999993     46.481450000000002
C      47.925950000000000     47.428899999999999     49.758950000000006
C      49.831549999999993     48.304400000000001     47.914049999999996
C      45.698949999999996     48.917500000000004     46.987550000000006
C      46.613649999999993     49.409899999999993     46.163050000000005
C      49.266249999999999     47.053700000000006     49.960850000000001
C      50.243350000000007     47.475800000000007     49.008050000000004
H      45.012149999999991     48.251700000000000     48.510849999999998
H      48.640349999999998     49.366900000000001     45.599350000000008
H      47.036450000000002     47.066999999999993     50.494149999999998
H      50.610150000000004     48.875900000000001     47.334449999999997
H      44.748850000000004     48.861699999999999     46.683950000000003
H      46.294550000000001     49.481499999999997     45.144349999999996
H      49.517849999999996     46.518500000000003     50.855650000000004
H      51.251149999999996     46.999200000000002     48.896149999999999
