40

C      47.419649999999997     48.830349999999996     47.561849999999986
C      47.639850000000003     48.392250000000004     46.244850000000000
C      45.412250000000000     46.203350000000007     50.063149999999993
C      46.443550000000002     48.415550000000003     48.525649999999999
C      46.985250000000001     47.137149999999998     45.737449999999995
C      44.955150000000003     46.259850000000007     48.726249999999993
C      45.683850000000007     47.325350000000007     47.945849999999993
C      45.930250000000001     46.507750000000001     46.799250000000001
C      48.469750000000005     49.363350000000004     48.332650000000001
C      49.398650000000004     50.088950000000004     47.670449999999988
C      49.616550000000004     49.861650000000004     46.194749999999999
C      48.871450000000003     48.869049999999994     45.663849999999996
C      48.765350000000012     49.260849999999998     49.852949999999993
C      50.089150000000004     49.500850000000007     50.442949999999996
C      50.976150000000004     50.186150000000005     49.610549999999989
C      50.758849999999995     50.429050000000011     48.283249999999995
C      47.550950000000000     49.209550000000000     50.661450000000002
C      46.832950000000004     48.078150000000001     49.924949999999995
C      46.549650000000000     46.844950000000004     50.550950000000000
C      49.214849999999998     49.199149999999996     44.182949999999991
C      46.825350000000000     46.449950000000008     52.059649999999991
H      44.828850000000003     45.719750000000005     50.863849999999999
H      44.043250000000000     45.871350000000000     48.375149999999991
H      50.392250000000004     49.352350000000008     51.509450000000001
H      51.956750000000000     50.478650000000002     50.084750000000000
H      46.898750000000000     49.900750000000002     51.085250000000002
H      47.857849999999999     46.657850000000003     52.216449999999995
H      49.092250000000000     50.277850000000008     43.727549999999994
H      50.244550000000004     50.796350000000011     44.697049999999990
H      48.384950000000003     46.091150000000006     46.467749999999995
H      46.386550000000000     45.486850000000004     51.912049999999994
H      46.110650000000007     47.023650000000004     52.756349999999998
H      46.206050000000005     45.079450000000001     45.760549999999995
H      46.976550000000003     49.134050000000002     43.968649999999997
H      51.579050000000009     50.920549999999999     47.661949999999990
N      45.443150000000003     45.426949999999998     46.533850000000001
O      49.130650000000003     48.365749999999998     43.243650000000002
O      50.514550000000000     50.648150000000008     45.643949999999990
O      47.909250000000000     45.937249999999999     45.634249999999994
S      46.686650000000000     47.535950000000007     43.992549999999994
