10

C      48.393099999999990     48.251299999999993     49.247599999999991
C      47.945000000000000     48.567700000000002     46.846399999999996
C      48.148299999999999     47.553500000000000     47.958899999999993
H      48.832599999999992     47.209199999999996     49.676499999999997
H      49.155200000000001     48.986499999999999     49.107599999999998
H      47.384200000000000     48.809500000000000     49.657599999999995
H      48.940199999999997     46.827900000000000     47.515499999999996
H      47.473399999999998     46.517099999999999     47.831200000000003
H      48.622299999999996     49.482900000000001     46.533700000000003
O      46.844799999999999     48.686899999999994     46.323500000000003
