33

C      49.891699999999993     47.239899999999992     48.415299999999995
C      49.767300000000006     46.451900000000009     47.191599999999994
C      47.477900000000005     50.346000000000004     46.043499999999995
C      49.407100000000000     48.561700000000002     48.610299999999995
C      49.515799999999999     47.143600000000006     45.957999999999998
C      48.014899999999997     50.310699999999997     47.364300000000000
C      47.682299999999998     49.086300000000008     45.468199999999996
C      48.896200000000007     49.176900000000003     47.402400000000000
C      48.684600000000003     48.256900000000002     46.180499999999995
C      50.579099999999997     46.611800000000002     49.557599999999994
C      50.465000000000003     45.162500000000009     49.575599999999994
C      50.389300000000006     44.386200000000002     48.440199999999990
C      50.143400000000000     45.072900000000004     47.221099999999993
C      49.725899999999996     48.311599999999999     50.740099999999998
C      50.388500000000008     47.042900000000003     50.936300000000003
C      45.994000000000000     50.765100000000004     45.643000000000001
C      46.628100000000003     48.024900000000002     45.012299999999996
C      47.850499999999997     51.680300000000003     48.124699999999990
H      49.385900000000007     46.673200000000008     44.994099999999989
H      50.734700000000004     44.869600000000005     50.570399999999992
H      50.853700000000003     43.352199999999996     48.465599999999995
H      50.082999999999998     44.620800000000003     46.322800000000001
H      49.759799999999998     48.849500000000006     51.799899999999994
H      50.808300000000003     46.518500000000003     51.884799999999998
H      45.701499999999996     50.749300000000005     44.604500000000002
H      46.643200000000007     47.315799999999996     44.115200000000002
H      45.800899999999999     48.668199999999999     44.844099999999997
H      46.500100000000003     47.599299999999999     46.025300000000001
H      48.646299999999997     52.647800000000004     48.045499999999990
H      46.780400000000000     51.970800000000011     48.352400000000003
H      48.186700000000002     51.452700000000007     49.174899999999994
N      49.285899999999998     49.097700000000003     49.770499999999998
O      45.146299999999997     50.833100000000002     46.505399999999995
