5

C      47.939999999999998     48.057649999999981     48.097349999999999
H      48.751100000000001     48.431950000000001     48.950050000000005
H      48.411200000000001     48.272350000000003     47.049949999999995
H      47.358000000000011     47.146249999999995     48.289950000000005
H      47.248899999999999     48.853750000000005     47.616950000000003
