46

C      44.549899999999980     48.932199999999995     50.689999999999998
C      45.278899999999993     47.626199999999997     50.893900000000002
C      51.702799999999996     47.736599999999996     45.244299999999996
C      51.694999999999993     46.856800000000007     46.393400000000000
C      45.169199999999989     50.008899999999997     49.847800000000007
C      46.560599999999994     47.241100000000003     50.444500000000005
C      50.916099999999986     48.872699999999995     44.998100000000008
C      50.559499999999986     46.962900000000005     47.289100000000005
C      46.925399999999996     50.331900000000005     47.896200000000007
C      48.711499999999987     50.081999999999994     45.987499999999997
C      48.301899999999989     47.751900000000006     48.825100000000006
C      46.426599999999993     49.605800000000002     49.007999999999996
C      47.017499999999998     48.174599999999998     49.452600000000004
C      49.815399999999983     49.045000000000002     45.914000000000001
C      47.909400000000005     49.606699999999989     47.081599999999995
C      49.628399999999999     48.046700000000001     46.880099999999999
C      48.413599999999988     48.422200000000004     47.626599999999996
C      50.363399999999999     46.269599999999997     48.492599999999996
C      49.221299999999999     46.598299999999995     49.108800000000002
C      48.697999999999993     45.662300000000002     50.112700000000004
C      47.432800000000000     45.921700000000001     50.743300000000005
C      43.469199999999987     49.528299999999987     51.290199999999999
C      44.695099999999996     46.696299999999994     51.751700000000000
C      45.363900000000001     45.600399999999993     52.342200000000005
C      46.604099999999988     45.083200000000005     51.620999999999995
C      44.427699999999987     51.112800000000007     49.969700000000003
C      52.805599999999984     45.842900000000000     46.702700000000007
C      52.686800000000005     47.383499999999998     44.097999999999999
H      53.691200000000009     46.114699999999999     46.213700000000003
H      42.308799999999991     49.176499999999990     52.595700000000008
H      51.122600000000006     49.593400000000003     44.231999999999999
H      46.487399999999994     51.231099999999998     47.688699999999997
H      48.994399999999999     51.120300000000000     46.022900000000007
H      50.963799999999992     45.298299999999998     48.840299999999999
H      49.124899999999997     44.424700000000001     49.949900000000000
H      43.749699999999990     47.190600000000003     52.238399999999999
H      44.900400000000005     44.671000000000006     52.827399999999997
H      46.890099999999990     44.040300000000002     51.882400000000004
H      44.775099999999995     51.959699999999998     49.507199999999997
H      52.659299999999988     44.807599999999994     47.006399999999999
H      53.218699999999984     46.520600000000002     47.392300000000006
H      52.950000000000003     46.243600000000001     44.238399999999999
H      52.301400000000001     47.653000000000006     43.172600000000003
H      53.559799999999996     48.004000000000005     44.388500000000008
O      42.496699999999990     48.692300000000003     51.900599999999997
O      43.450199999999995     50.813500000000005     51.194400000000002
