6

C      47.259449999999994     48.278799999999990     47.948099999999997
C      48.415250000000000     47.716999999999999     48.305799999999998
H      46.833449999999999     49.091000000000001     48.436799999999998
H      46.778149999999997     48.227100000000000     47.013399999999997
H      49.221850000000003     48.069299999999998     48.986600000000003
H      48.874150000000000     46.908999999999999     47.741300000000003
