58

C      47.450499999999991     48.929849999999988     47.790349999999997
C      48.588899999999995     49.375850000000000     48.663650000000004
C      50.505400000000009     50.170250000000010     44.546850000000006
C      47.500400000000013     49.477649999999997     46.478250000000003
C      49.644000000000005     50.225250000000003     48.183450000000008
C      49.113799999999998     50.110349999999997     44.658150000000006
C      51.058499999999995     50.395650000000003     45.853250000000003
C      48.758900000000011     50.134450000000001     45.979150000000004
C      49.911799999999999     50.562950000000001     46.733050000000006
C      46.439800000000005     47.976150000000004     48.075350000000000
C      46.572299999999998     47.448750000000004     49.317350000000005
C      47.530400000000000     47.900649999999999     50.468649999999997
C      48.473299999999995     48.816149999999993     49.868949999999998
C      45.656099999999995     47.457149999999999     46.819249999999997
C      45.047100000000000     46.255449999999996     46.896349999999998
C      44.858000000000004     45.836749999999995     48.254850000000005
C      45.506399999999999     46.487449999999995     49.366550000000004
C      45.684899999999999     48.191149999999993     45.584249999999997
C      46.548199999999994     49.221350000000001     45.324050000000000
C      47.530100000000004     47.233350000000002     51.621049999999997
C      48.568700000000007     47.718750000000000     52.526350000000008
C      49.745900000000006     48.242149999999995     51.866349999999997
C      49.703500000000005     49.113749999999996     50.781850000000006
C      50.724699999999999     50.489149999999995     49.152150000000006
C      50.990800000000007     49.634249999999994     50.274650000000008
C      46.678399999999996     50.181349999999995     44.047550000000001
C      48.198900000000009     49.752850000000009     43.460750000000004
C      45.308099999999996     45.810649999999995     50.714849999999998
C      46.343800000000002     46.381850000000000     52.002949999999998
C      44.028300000000002     46.495649999999998     51.188249999999996
C      43.551299999999998     45.781949999999995     52.383250000000004
C      52.557700000000011     50.767250000000004     45.969949999999997
C      44.333799999999997     48.143550000000005     44.887650000000008
H      51.156099999999995     50.175650000000005     43.620950000000008
H      52.414900000000003     51.203950000000006     46.993250000000003
H      44.496200000000002     44.820650000000001     48.489249999999998
H      48.832999999999998     47.525350000000003     53.510149999999996
H      51.622800000000012     51.176749999999998     48.914850000000001
H      52.107399999999998     49.384749999999997     50.837249999999997
H      46.679900000000004     51.257350000000002     44.306049999999999
H      45.939599999999999     50.136650000000003     43.298050000000003
H      47.993700000000004     48.586550000000003     43.467849999999999
H      48.356900000000010     50.185950000000005     42.489850000000004
H      45.016099999999994     44.748049999999992     50.801150000000007
H      45.665000000000006     46.809749999999994     52.718550000000008
H      46.894499999999994     45.505749999999992     52.699050000000000
H      43.603799999999993     46.482150000000004     53.399349999999998
H      43.912999999999997     44.742649999999998     52.564250000000001
H      51.053100000000001     49.204049999999995     52.748050000000006
H      44.520300000000006     45.673149999999993     44.970550000000003
H      43.783299999999997     48.901250000000005     45.492249999999999
H      44.329200000000000     48.160049999999998     43.679450000000003
H      43.287000000000006     47.203749999999999     45.162250000000000
H      42.393199999999993     45.447249999999997     52.241749999999996
O      43.489199999999997     47.173749999999998     50.347949999999997
O      53.606800000000007     50.848250000000007     45.351749999999996
O      51.024200000000008     48.195049999999995     52.434950000000001
O      44.757999999999996     45.443449999999999     45.827449999999999
