18

C      47.478999999999992     48.426399999999994     48.307999999999993
C      48.552199999999999     47.497000000000000     47.796700000000001
C      46.588600000000000     49.039600000000000     47.433600000000013
C      48.359600000000000     46.933599999999998     46.474700000000013
C      47.919700000000006     49.024000000000001     49.588500000000010
C      49.461600000000004     46.724299999999999     48.680800000000005
C      46.822299999999998     48.800899999999999     46.068899999999999
C      47.504999999999995     47.644999999999996     45.638600000000011
C      48.650400000000005     48.060500000000005     50.381900000000016
C      49.462400000000002     46.963000000000001     50.048100000000005
H      45.959699999999998     49.889099999999999     47.654000000000011
H      48.784199999999998     46.042200000000001     46.368100000000013
H      47.515199999999993     50.091300000000004     49.837600000000009
H      50.040300000000002     45.908699999999996     48.300200000000004
H      46.094600000000000     49.268600000000006     45.351200000000006
H      47.419800000000002     47.356099999999998     44.605699999999999
H      48.726700000000001     48.125799999999998     51.394300000000001
H      49.897199999999998     46.168000000000006     50.954200000000000
