6

C      48.688799999999993     47.712399999999988     47.927199999999992
C      47.452900000000000     48.263700000000000     48.017600000000002
H      46.598699999999994     47.870599999999996     47.402100000000004
H      49.401300000000006     48.122299999999996     48.540899999999993
H      47.382400000000004     48.925600000000003     48.884799999999998
H      49.020600000000002     47.074399999999997     47.115200000000002
