18

C      47.904749999999993     47.640399999999985     47.417979999999986
C      48.107650000000007     48.439000000000000     48.764579999999995
C      46.862549999999999     46.536499999999997     47.209069999999997
C      47.195250000000001     48.079100000000004     49.718709999999994
C      48.626649999999998     48.030999999999999     46.281479999999995
C      49.339849999999998     48.966599999999993     48.819250000000004
C      45.967350000000010     46.612699999999997     48.194089999999996
C      45.992350000000002     47.629299999999994     49.160779999999995
C      49.777050000000003     48.945699999999995     46.405529999999999
C      50.162750000000003     49.290299999999995     47.765839999999990
H      46.630350000000007     46.072200000000002     46.347329999999999
H      47.261949999999999     48.753499999999995     50.545690000000000
H      48.564650000000015     47.515200000000000     45.454310000000000
H      49.687449999999998     49.438799999999993     49.762729999999998
H      45.096249999999998     46.085400000000000     48.231299999999997
H      44.995750000000001     47.756899999999995     49.595569999999988
H      50.346249999999998     49.606500000000004     45.634059999999998
H      51.004249999999999     49.927799999999998     47.843550000000000
