6

C      48.351099999999995     47.912999999999990     47.409074999999994
C      47.865600000000001     48.418300000000002     48.443375000000003
H      48.183400000000006     48.228200000000001     46.444185000000004
H      49.145499999999998     46.932000000000002     47.543895000000006
H      46.854500000000002     49.067999999999998     48.200535000000002
H      47.978499999999997     48.586900000000000     49.555814999999996
