18

C      47.637499999999996     48.216549999999998     47.798099999999991
C      48.631100000000004     47.272150000000003     48.176800000000000
C      47.759700000000009     49.511350000000000     47.147800000000004
C      50.062399999999997     47.817350000000005     48.041499999999999
C      46.355900000000005     47.990450000000003     48.411199999999994
C      48.331800000000001     45.956650000000003     48.666499999999999
C      49.006500000000003     50.102950000000000     47.216300000000004
C      49.946600000000004     49.217550000000010     47.991600000000005
C      45.943600000000004     46.701550000000005     48.722099999999998
C      46.983900000000006     45.688850000000009     48.816599999999994
H      45.000299999999996     46.657750000000000     49.057100000000005
H      47.021600000000007     50.306450000000005     46.942899999999995
H      50.999400000000009     47.347350000000006     48.287700000000001
H      46.461100000000002     44.806350000000002     48.915800000000004
H      49.338800000000006     51.193649999999998     47.065700000000007
H      50.999700000000004     49.661650000000002     48.143000000000001
H      45.788200000000003     48.818850000000005     48.450900000000004
H      49.150500000000008     45.395950000000006     48.712999999999994
