18

C      47.390749999999997     47.919699999999985     47.255349999999993
C      48.552850000000007     47.667299999999997     48.084350000000008
C      47.396550000000005     49.221099999999993     46.446149999999996
C      49.791449999999998     48.366000000000000     47.963050000000003
C      46.174450000000007     47.094799999999992     47.584449999999997
C      48.712850000000003     46.502699999999990     48.861950000000000
C      48.554249999999996     49.874600000000001     46.522150000000003
C      49.922550000000001     49.467299999999994     47.125949999999996
C      46.338850000000008     46.398799999999994     48.835950000000004
C      47.651849999999996     46.043300000000002     49.332250000000009
H      46.515249999999995     49.786400000000000     46.058050000000001
H      50.601749999999996     47.909799999999990     48.536549999999998
H      45.218850000000003     47.757800000000003     47.474550000000001
H      49.828950000000006     45.987699999999990     49.250350000000005
H      48.673749999999998     50.914400000000001     46.349250000000005
H      50.781149999999997     50.266700000000000     47.275849999999998
H      45.416750000000008     45.803399999999996     49.193649999999998
H      47.707350000000005     45.085599999999999     49.941949999999999
