18

C      47.354149999999990     48.685499999999998     47.737399999999994
C      48.035149999999994     47.362799999999993     48.090600000000002
C      47.390349999999991     49.156599999999997     46.385400000000004
C      48.306949999999993     46.332799999999992     47.134200000000007
C      46.780349999999991     49.616900000000001     48.715500000000006
C      48.075449999999996     47.199699999999993     49.483300000000007
C      48.090949999999999     48.257499999999993     45.551500000000004
C      48.523449999999997     46.975499999999997     45.944400000000002
C      47.162649999999992     49.492999999999995     50.157100000000007
C      47.715249999999990     48.255499999999998     50.345500000000008
H      46.992149999999995     50.164299999999997     45.991900000000001
H      48.497949999999996     45.391199999999998     47.356800000000007
H      46.615850000000002     50.608800000000002     48.476800000000004
H      48.336149999999996     46.309600000000003     50.035900000000005
H      47.689949999999996     48.781899999999993     44.612500000000004
H      49.384149999999998     46.597899999999996     45.228900000000003
H      46.895649999999996     50.279899999999998     50.932300000000005
H      47.840150000000001     48.055799999999991     51.387499999999996
