18

C      47.968349999999994     47.927399999999992     47.098900000000000
C      47.416650000000004     48.305399999999999     48.417300000000004
C      49.132950000000008     48.681499999999993     46.827200000000005
C      48.127650000000003     49.109600000000000     49.413000000000004
C      47.381050000000002     46.830399999999997     46.321600000000004
C      46.417950000000005     47.417400000000001     48.914600000000014
C      49.746849999999995     49.550400000000003     47.761699999999998
C      49.171250000000001     50.063099999999999     49.058100000000003
C      46.656750000000002     45.898400000000002     47.021900000000002
C      45.923349999999999     46.200299999999999     48.270400000000002
H      49.814650000000000     48.336700000000000     46.136300000000006
H      47.967449999999999     49.172900000000006     50.417499999999997
H      47.793750000000003     46.204500000000003     45.582500000000003
H      45.945350000000005     47.704700000000003     49.829500000000003
H      50.816850000000002     49.807899999999997     47.824500000000008
H      49.374849999999995     50.985900000000001     49.463200000000008
H      46.433250000000001     45.014099999999999     46.439100000000003
H      45.183149999999998     45.444299999999998     48.577300000000001
