5

C      47.735699999999994     47.909099999999988     48.165149999999997
H      47.173299999999998     48.680399999999999     48.222550000000005
H      48.826700000000002     48.344899999999996     47.866350000000004
H      48.223999999999990     47.319600000000001     48.945749999999997
H      47.396799999999999     47.565799999999996     47.054250000000003
