5

C      47.872949999999989     48.080899999999993     47.969049999999996
H      47.128149999999998     48.814900000000002     47.774350000000005
H      48.871850000000002     48.242699999999999     47.946150000000003
H      47.752049999999997     47.185099999999998     48.822049999999997
H      47.819349999999993     47.393500000000003     47.177950000000003
