8

C      47.766678999999996     47.413749999999993     47.127899999999997
C      47.543656999999996     48.023349999999994     48.213100000000004
C      47.528697000000008     47.626549999999995     49.381400000000006
H      48.716294000000005     47.052750000000003     47.442900000000002
H      47.200925999999995     47.769749999999988     46.129500000000000
H      47.548332000000002     49.276349999999994     48.081700000000005
H      47.139476000000002     46.723650000000006     49.674500000000002
H      48.860523999999998     47.652450000000002     49.870500000000000
