36

C      47.339149999999989     49.040349999999989     49.030399999999993
C      46.277250000000002     50.016350000000003     48.863100000000003
C      48.857850000000006     49.538749999999993     44.545699999999997
C      47.563650000000003     50.011949999999999     44.164600000000000
C      48.422149999999995     49.039649999999995     48.058199999999999
C      46.054250000000003     50.505450000000010     47.531599999999997
C      49.256650000000000     49.301749999999998     45.831400000000002
C      46.590349999999994     50.264949999999999     45.238100000000003
C      48.407350000000001     49.819550000000007     46.916399999999996
C      47.107250000000001     50.259349999999998     46.533999999999999
C      47.603749999999998     48.669049999999999     50.486300000000000
C      46.770249999999997     49.494249999999994     51.363900000000001
C      45.228150000000007     50.152450000000002     49.858199999999997
C      49.688449999999996     48.123649999999998     48.313000000000002
C      49.459150000000001     47.292349999999999     49.366600000000005
C      48.689249999999994     47.809150000000002     50.504899999999992
C      50.826550000000005     47.993349999999992     47.441499999999998
C      48.979649999999999     47.126350000000002     51.905900000000003
C      50.346049999999998     46.048749999999998     49.815799999999996
C      47.068350000000002     49.425049999999999     52.742900000000006
H      47.251950000000001     49.993250000000003     42.929900000000004
H      45.151350000000001     50.643950000000004     47.119199999999999
H      50.259149999999998     48.835149999999999     45.980499999999999
H      45.612749999999998     50.617750000000001     45.112699999999997
H      44.133649999999996     50.365150000000000     49.407299999999999
H      47.881250000000001     47.439849999999993     52.413399999999996
H      50.696649999999998     45.356049999999996     49.050200000000004
H      49.989550000000001     45.510750000000002     50.767600000000002
H      51.166149999999995     46.726450000000000     49.947499999999991
H      47.823950000000004     48.833950000000002     52.973199999999991
H      46.298150000000000     49.704549999999998     53.540300000000002
H      49.596950000000000     49.267550000000000     42.459699999999998
N      45.473050000000008     49.913150000000002     51.068200000000004
O      51.866350000000004     48.251149999999996     46.883699999999997
O      49.775950000000002     46.535849999999996     52.584599999999995
O      49.570950000000003     49.138249999999999     43.425600000000003
