12

C      46.839899999999986     48.037349999999989     48.534899999999993
C      48.555500000000009     46.934249999999999     47.266900000000000
C      48.081099999999992     48.166850000000004     47.690800000000003
C      49.066000000000003     49.278950000000002     47.348999999999997
H      46.060500000000005     48.756949999999996     48.144300000000001
H      46.389899999999997     46.992449999999998     48.238399999999999
H      46.642399999999995     47.891049999999993     49.622000000000000
H      49.464199999999991     46.745849999999997     46.709899999999998
H      48.136900000000011     45.922149999999995     47.402500000000003
H      49.313000000000002     50.077850000000005     48.073100000000004
H      48.987499999999997     49.599649999999997     46.378000000000000
H      49.939499999999995     48.665649999999992     47.485500000000002
