5

C      47.814799999999991     47.829349999999991     48.101199999999984
H      48.667400000000015     48.920450000000002     48.193799999999996
H      47.201200000000000     47.316649999999996     48.815200000000004
H      47.466400000000007     47.691449999999996     47.184799999999996
H      48.798800000000000     47.079549999999998     48.421300000000002
