18

C      47.646839999999997     47.773549999999993     48.720585000000000
C      48.015410000000003     47.641550000000002     47.328299000000001
C      48.143619999999999     47.093150000000001     49.930935000000005
C      49.073380000000000     46.575649999999996     47.080656000000005
C      46.651359999999997     48.760350000000003     49.146045000000001
C      47.261240000000001     48.359049999999996     46.343575000000001
C      49.161630000000002     46.280650000000001     49.576324999999997
C      49.668850000000006     45.897950000000002     48.287374999999997
C      46.040880000000001     49.570850000000000     48.242694999999998
C      46.354140000000001     49.299849999999999     46.910461999999995
H      48.142420000000001     47.573549999999997     50.886724999999998
H      49.245519999999999     46.367350000000002     46.037374999999997
H      46.346329999999995     48.943049999999999     50.219434999999990
H      47.404560000000004     48.086550000000003     45.113275000000002
H      49.666600000000003     45.706049999999998     50.441584999999989
H      50.708129999999997     45.534050000000001     48.364725000000007
H      45.291870000000003     50.465949999999999     48.297995000000000
H      45.859130000000007     49.757450000000006     46.034674999999993
