18

C      48.648749999999993     48.144700000000000     48.375559999999993
C      47.311349999999990     48.029300000000006     47.718040000000002
C      49.054849999999988     49.327799999999996     48.799530000000019
C      46.818349999999995     49.229299999999995     46.980119999999999
C      49.289149999999992     46.835999999999999     49.022140000000007
C      46.788649999999990     46.705300000000008     47.682680000000005
C      48.436049999999994     50.543599999999998     48.300610000000006
C      47.247450000000001     50.424800000000005     47.499290000000002
C      48.865549999999999     45.574600000000004     48.495180000000019
C      47.528349999999989     45.538399999999996     48.009190000000004
H      49.797649999999990     49.572299999999998     49.590100000000007
H      45.726849999999999     48.952599999999990     46.375940000000000
H      50.273150000000001     46.913600000000002     49.624060000000000
H      45.862849999999995     46.476500000000001     47.274440000000013
H      48.750649999999993     51.538300000000007     48.597640000000013
H      47.072149999999993     51.237099999999998     46.821670000000012
H      49.211050000000000     44.588099999999997     48.545350000000013
H      47.149450000000002     44.461699999999993     47.675330000000002
