18

C      48.971324999999986     47.671499999999995     48.426749999999998
C      47.572324999999992     47.661699999999996     48.581049999999991
C      49.562224999999998     46.497900000000001     47.646649999999994
C      46.604884999999996     46.668599999999998     47.868750000000006
C      49.497725000000003     48.749099999999984     49.202050000000000
C      46.741424999999992     48.784499999999994     48.915049999999994
C      48.717624999999998     45.541799999999995     47.135649999999998
C      47.304124999999992     45.827199999999991     47.145550000000000
C      48.800424999999997     49.939499999999995     49.339550000000003
C      47.330124999999995     50.016899999999993     49.062250000000006
H      50.534125000000003     46.439300000000003     47.387649999999994
H      45.465874999999997     46.809299999999993     47.857849999999999
H      50.531424999999999     48.902199999999993     49.637349999999998
H      45.755684999999993     48.853600000000000     48.659850000000006
H      49.140524999999997     44.935800000000000     46.256249999999994
H      46.622444999999992     45.292000000000002     46.494649999999993
H      49.215424999999996     50.749099999999999     49.743750000000006
H      46.732624999999999     51.064200000000000     49.230549999999994
