18

C      47.972449999999995     47.724549999999994     48.628399999999999
C      48.319150000000000     48.377149999999993     47.339100000000002
C      47.716249999999995     46.313650000000003     48.793800000000019
C      48.599550000000001     47.407649999999997     46.509200000000007
C      47.680349999999997     48.678450000000005     49.617200000000011
C      48.264149999999994     49.767550000000007     46.748000000000005
C      47.605449999999998     45.357950000000002     47.680300000000003
C      48.422750000000001     46.021250000000002     46.774500000000003
C      47.792049999999996     50.021850000000008     49.088400000000007
C      47.919049999999999     50.582050000000002     47.710800000000006
H      47.920150000000000     45.686050000000002     49.600700000000003
H      48.849049999999998     47.392150000000001     45.454200000000000
H      47.150950000000002     48.492350000000009     50.545800000000000
H      48.416649999999997     49.699249999999999     45.698700000000002
H      47.436850000000000     44.345350000000003     47.820500000000010
H      48.352150000000002     45.209150000000001     45.932600000000008
H      47.516849999999998     50.819450000000010     49.882500000000007
H      47.883049999999997     51.654649999999997     47.697300000000013
