6

C      47.926399999999987     48.089549999999988     48.028999999999996
H      49.234500000000004     47.010350000000003     48.923600000000000
H      46.765499999999996     47.978549999999998     47.995899999999999
H      48.373699999999992     49.046350000000004     48.363400000000006
H      48.270100000000006     47.647750000000002     47.076400000000000
O      48.241199999999999     46.953649999999996     48.778100000000002
