18

C      48.363949999999988     47.696849999999984     47.232299999999995
C      48.141949999999994     47.870149999999995     48.668200000000006
C      47.325450000000004     46.897549999999995     46.490500000000004
C      47.131649999999993     46.887749999999997     49.248600000000003
C      49.318849999999998     48.651856000000009     46.653900000000000
C      49.082750000000004     48.593095300000002     49.544900000000005
C      46.218350000000001     46.322749999999999     46.965800000000009
C      46.426850000000002     45.955150000000003     48.430900000000001
C      49.926349999999999     49.699280000000002     47.423899999999996
C      49.853650000000002     49.532560000000004     48.830900000000007
H      47.334249999999997     47.056349999999995     45.391500000000001
H      46.969849999999994     47.061049999999994     50.337200000000003
H      49.794350000000009     48.717219999999998     45.630000000000003
H      48.884550000000004     48.421949999999995     50.608499999999999
H      45.244150000000005     46.020550000000000     46.312000000000005
H      45.323449999999994     45.655450000000002     49.132300000000008
H      50.452650000000006     50.344549999999998     46.951699999999995
H      50.755849999999995     49.974510000000009     49.368500000000004
