18

C      47.801049999999996     47.977949999999993     48.601799999999990
C      48.685650000000010     47.763649999999998     47.516799999999996
C      47.011449999999996     49.227250000000005     48.650599999999997
C      48.740750000000006     48.809950000000008     46.568799999999996
C      47.646950000000004     46.895249999999997     49.547299999999993
C      49.171050000000008     46.449750000000002     47.188400000000001
C      46.958449999999999     50.200550000000000     47.720599999999997
C      47.960650000000001     50.044450000000005     46.611699999999999
C      48.350850000000008     45.767150000000001     49.440399999999997
C      49.287550000000010     45.629449999999999     48.353699999999996
H      46.024749999999997     49.330549999999995     49.279899999999998
H      49.094350000000006     48.420750000000005     45.487099999999998
H      47.097450000000009     47.148450000000004     50.512900000000002
H      49.616450000000000     46.311050000000002     46.325600000000001
H      46.226750000000010     51.187649999999998     47.856099999999998
H      47.860849999999999     50.851649999999999     45.901199999999996
H      48.394350000000003     44.812350000000002     49.927400000000006
H      49.975250000000003     44.859349999999999     48.319600000000001
