19

C      48.020999999999994     48.378399999999999     47.219839999999991
C      47.304200000000009     47.844099999999997     48.376779999999997
C      48.275700000000001     47.255600000000001     46.164249999999996
C      46.760500000000008     46.562200000000004     48.721789999999999
C      48.664700000000011     49.641599999999997     47.218899999999998
C      47.918100000000010     48.519899999999993     49.605409999999999
C      47.402700000000010     46.050500000000000     46.408729999999998
C      46.939200000000000     45.565899999999999     47.681199999999997
C      48.949900000000000     50.559200000000004     48.272599999999990
C      48.370199999999997     49.858500000000006     49.377469999999995
H      49.280500000000004     46.638800000000003     46.091980000000000
H      48.240300000000005     47.594400000000007     45.130890000000001
H      46.335200000000000     46.461100000000002     49.704239999999999
H      49.156300000000002     49.717399999999998     46.190500000000000
H      47.854300000000009     48.511499999999998     50.869109999999999
H      47.110300000000009     45.597099999999998     45.528959999999998
H      46.511400000000009     44.661100000000005     47.636099999999999
H      49.664800000000000     51.338899999999995     48.244090000000000
H      48.472900000000010     50.282300000000006     50.387949999999996
