18

C      48.354250000000000     47.953899999999990     47.316599999999987
C      47.744650000000007     47.712699999999998     48.654600000000002
C      49.782650000000004     48.074300000000001     47.040899999999993
C      48.766750000000002     47.591899999999995     49.725799999999992
C      47.500050000000002     48.180500000000002     46.209199999999996
C      46.378650000000007     47.189099999999996     48.643599999999992
C      50.388950000000008     47.832499999999996     48.164900000000003
C      50.126550000000009     48.038500000000006     49.541100000000000
C      46.182350000000000     47.860099999999996     46.364699999999999
C      45.580050000000000     47.802299999999995     47.644300000000001
H      50.371850000000009     48.056199999999997     46.143400000000000
H      48.475450000000009     47.067999999999998     50.738399999999999
H      48.009250000000009     48.932000000000002     45.261600000000001
H      46.049750000000003     47.565700000000000     49.664999999999992
H      51.477750000000000     47.662399999999998     48.183300000000003
H      51.100350000000006     48.341299999999997     50.206299999999999
H      45.448950000000011     48.106800000000000     45.481899999999996
H      44.522250000000000     47.643200000000000     47.753299999999996
