6

C      47.493399999999994     48.490199999999987     48.139199999999988
C      47.698099999999997     47.389099999999999     47.186100000000003
H      47.764899999999997     49.593800000000002     47.496199999999995
H      48.896700000000003     47.091899999999995     46.759599999999999
H      47.103299999999997     46.406199999999998     47.388500000000001
H      47.560499999999998     48.400199999999998     49.240400000000001
