18

C      48.437049999999992     47.924774999999997     48.842399999999991
C      47.905050000000003     47.378295000000001     47.609200000000001
C      47.404749999999993     48.530675000000009     49.669699999999992
C      46.498649999999998     47.139695000000003     47.460000000000001
C      49.879849999999990     48.149075000000003     48.933999999999997
C      48.773749999999993     47.397505000000002     46.454099999999997
C      46.160550000000001     47.838374999999999     49.733000000000004
C      45.661850000000001     47.196285000000003     48.564399999999999
C      50.522649999999999     48.381774999999998     47.730000000000004
C      50.032049999999998     47.878675000000001     46.412700000000001
H      47.616450000000000     49.204875000000008     50.285100000000000
H      46.195849999999993     46.610025000000000     46.477800000000002
H      50.204250000000002     48.474775000000001     50.007599999999996
H      48.165549999999996     47.046925000000002     45.593599999999995
H      45.350650000000002     48.245775000000002     50.444699999999997
H      44.748249999999999     46.979855000000001     48.178699999999999
H      51.251750000000001     49.389975000000000     47.575699999999998
H      50.621949999999998     48.111775000000002     45.555300000000003
