21

C      48.004349999999988     46.618349999999992     47.817249999999987
C      48.066450000000003     48.003750000000004     47.354549999999996
C      46.929249999999996     45.898849999999996     47.171649999999993
C      47.105750000000000     48.515149999999998     46.459650000000003
C      48.881650000000008     46.206849999999996     48.820450000000001
C      49.087249999999997     48.871850000000002     47.884549999999997
C      46.395049999999998     46.355949999999993     46.064749999999997
C      46.200749999999999     47.793649999999992     45.718049999999998
C      49.616550000000004     47.074549999999995     49.656150000000004
C      49.871549999999999     48.332450000000001     48.899549999999998
C      46.975350000000006     50.273949999999992     46.309649999999998
H      50.772750000000002     48.827249999999999     49.594149999999992
H      46.738650000000007     44.974449999999997     47.416249999999998
H      46.488550000000004     51.025550000000003     45.659550000000003
H      48.916650000000004     45.302849999999999     49.223449999999993
H      49.399850000000001     49.804349999999992     47.653050000000000
H      45.683750000000003     45.734549999999992     45.525849999999998
H      45.227249999999998     48.137849999999993     45.377050000000004
H      50.047449999999998     46.811449999999994     50.622949999999996
H      47.795550000000006     50.759149999999998     45.759750000000004
H      46.838049999999996     50.736849999999997     47.251449999999998
