32

C      45.500449999999994     47.645499999999991     47.473799999999990
C      45.903050000000000     46.286600000000000     47.434899999999999
C      50.286649999999995     49.039699999999996     47.472200000000001
C      50.623050000000006     47.599199999999996     47.817899999999995
C      46.479749999999996     48.671599999999998     47.151299999999992
C      47.309449999999998     45.851900000000001     47.263399999999997
C      48.941350000000000     49.213200000000001     47.400199999999998
C      49.602549999999994     46.588999999999999     47.778599999999997
C      47.844049999999996     48.289000000000001     47.366899999999994
C      48.278649999999999     46.836700000000000     47.386399999999995
C      44.061549999999997     48.020600000000002     47.498300000000000
C      43.144449999999999     46.915999999999997     47.009899999999995
C      43.715949999999999     45.677000000000000     47.001999999999995
C      51.212949999999992     50.097200000000001     47.457699999999996
C      52.547750000000001     49.832400000000007     47.748799999999989
C      52.851250000000007     48.536200000000001     48.157299999999992
C      51.951349999999991     47.531599999999997     48.371299999999991
C      52.737649999999995     46.127300000000005     48.356899999999996
H      52.324349999999995     45.418900000000001     47.703400000000002
H      45.821449999999999     49.657399999999996     46.985399999999998
H      47.244150000000005     45.008499999999998     46.576599999999999
H      48.747149999999991     50.397100000000002     47.559799999999996
H      49.871949999999998     45.639099999999999     48.527400000000000
H      42.097149999999999     47.017099999999999     46.790799999999997
H      43.208849999999998     44.766999999999996     46.701599999999999
H      50.879049999999992     51.233000000000004     47.368600000000001
H      53.213350000000005     50.655500000000004     47.732499999999995
H      53.873350000000002     48.244700000000002     48.162499999999994
H      52.767750000000007     45.798400000000001     49.423400000000001
H      53.902850000000001     46.233400000000003     47.896499999999989
N      45.024549999999998     45.363399999999999     47.085699999999996
O      43.489349999999995     48.986800000000002     47.755099999999999
