18

C      47.872849999999993     47.402700000000003     48.334049999999998
C      48.054249999999996     48.495400000000004     47.383650000000003
C      49.156049999999993     46.743500000000012     48.671849999999992
C      49.323450000000001     49.300899999999999     47.249749999999992
C      46.677849999999999     46.785400000000010     48.653449999999992
C      46.791950000000000     49.147100000000009     47.091949999999997
C      50.274649999999994     47.499800000000008     48.558049999999994
C      50.429949999999991     48.661400000000000     47.642349999999993
C      45.467849999999999     47.108200000000011     48.013649999999998
C      45.574849999999998     48.503600000000006     47.408850000000001
H      49.283049999999989     45.739900000000006     49.321449999999999
H      49.245750000000001     50.268400000000000     46.678550000000001
H      46.808349999999997     45.731600000000000     49.095550000000003
H      46.840949999999999     50.226600000000005     46.726050000000001
H      51.014250000000004     46.765100000000004     48.856949999999998
H      51.389650000000003     49.161500000000004     47.500550000000004
H      44.610349999999997     46.391400000000004     47.757850000000005
H      44.770249999999997     48.837700000000012     46.704149999999998
