18

C      48.490699999999997     48.267549999999993     48.951899999999995
C      47.629700000000007     48.555549999999997     47.677899999999994
C      47.683500000000002     47.645449999999997     49.980199999999996
C      46.241600000000005     48.323049999999995     47.769800000000004
C      49.874499999999998     48.624650000000003     48.671599999999998
C      48.138700000000000     48.925849999999997     46.469899999999996
C      46.350300000000004     47.100250000000003     49.733099999999993
C      45.522100000000002     47.426950000000005     48.724499999999992
C      50.338800000000006     48.802650000000000     47.307199999999995
C      49.494200000000006     49.130250000000004     46.141899999999993
H      48.257500000000007     47.562349999999995     50.861999999999995
H      45.625400000000006     48.648650000000004     46.941199999999995
H      50.320400000000006     47.947850000000003     49.548699999999997
H      47.325700000000005     49.469350000000006     45.836799999999997
H      45.969800000000006     46.530649999999994     50.721699999999998
H      44.676400000000001     46.917550000000006     48.388800000000003
H      51.323599999999999     48.506050000000002     46.940200000000004
H      49.641300000000001     49.451650000000001     45.138000000000005
