9

C      47.360032999999987     46.469299999999990     47.978219999999993
C      48.572134999999996     46.725000000000001     48.011140000000012
C      48.643234999999983     48.189799999999998     48.083640000000017
C      48.385984999999998     49.493400000000001     47.881390000000010
H      46.918124999999996     45.493000000000002     47.381480000000010
H      46.794525000000007     47.230100000000000     48.651910000000001
H      49.205474999999993     45.814900000000002     48.067220000000006
H      47.407113000000003     49.568100000000008     47.348089999999999
H      48.681054999999994     50.506999999999998     48.387560000000008
