6

C      47.600699999999989     47.762299999999996     47.537549999999996
C      48.615100000000012     47.997499999999995     48.410350000000001
H      46.861800000000002     47.059500000000000     47.969850000000001
H      47.395499999999998     48.225400000000000     46.480049999999999
H      48.705600000000004     47.797300000000000     49.519950000000001
H      49.138199999999998     48.940500000000000     48.025449999999999
