18

C      47.966649999999994     48.732499999999987     47.507899999999992
C      48.169449999999998     47.383499999999998     47.951199999999993
C      46.723050000000001     49.162000000000006     47.101700000000001
C      46.866849999999999     46.642799999999994     48.131599999999999
C      49.289450000000002     49.501199999999997     47.250399999999992
C      49.269850000000005     47.124799999999993     48.832900000000002
C      45.550849999999997     48.492099999999994     47.005699999999997
C      45.622950000000003     47.070400000000006     47.403500000000001
C      50.374549999999999     48.994699999999995     47.954599999999992
C      50.369850000000000     48.082400000000007     48.922499999999992
H      46.641350000000003     50.211800000000011     46.557300000000005
H      46.557749999999999     45.710899999999995     48.909799999999997
H      49.624350000000007     50.289100000000005     46.408700000000003
H      49.816749999999999     46.187700000000007     49.029599999999995
H      44.621549999999999     48.772900000000007     46.629699999999993
H      44.873649999999998     46.451400000000007     46.912299999999995
H      51.378450000000001     49.417000000000002     47.846799999999995
H      51.237650000000002     47.586699999999993     49.591299999999997
