5

C      48.008799999999994     47.969199999999987     47.925199999999990
H      48.282199999999989     47.764999999999993     48.960000000000001
H      48.961500000000001     48.147900000000000     47.039999999999999
H      47.039499999999990     47.332500000000003     47.530499999999996
H      47.038499999999999     48.667499999999997     47.950799999999994
