6

C      47.506649999999993     47.830599999999990     48.255699999999997
C      48.722450000000009     48.112099999999998     47.622799999999998
H      47.187550000000002     48.921700000000001     48.645600000000002
H      46.618949999999998     47.214200000000005     47.915700000000001
H      49.381050000000002     48.888199999999998     48.318899999999999
H      49.077550000000002     47.078299999999999     47.354399999999998
