18

C      48.653999999999996     48.421569999999988     48.196249999999992
C      47.576599999999999     47.431849999999997     48.094349999999999
C      48.175800000000010     49.763809999999999     48.530750000000005
C      46.198400000000007     47.700629999999997     48.668749999999996
C      49.962100000000007     48.115929999999999     48.000549999999997
C      48.022100000000009     46.196179999999998     47.445050000000002
C      46.728900000000010     49.932650000000002     48.541950000000007
C      45.729799999999997     48.962479999999992     48.935250000000003
C      50.376300000000015     46.821269999999998     47.450750000000006
C      49.413100000000014     45.813119999999998     47.227750000000007
H      48.772200000000012     50.645859999999992     48.577450000000006
H      45.747399999999999     46.925919999999998     49.213550000000005
H      50.549000000000007     49.074989999999993     48.059850000000004
H      47.029800000000009     45.430159999999994     47.466850000000001
H      46.209500000000006     51.015620000000006     48.765449999999994
H      44.728099999999998     49.215699999999998     49.259149999999998
H      51.271900000000002     46.300759999999997     47.836649999999999
H      49.905400000000014     44.984379999999994     46.740850000000002
