21

C      48.609099999999998     50.405049999999989     46.689949999999989
C      47.834299999999999     48.023450000000004     47.554249999999996
C      47.165999999999997     47.198450000000001     48.490749999999991
C      47.710899999999995     49.437649999999998     47.311650000000000
C      46.182500000000005     48.006049999999995     49.387249999999995
C      49.058599999999998     47.685949999999998     46.810649999999995
C      47.713899999999995     45.999549999999992     48.671250000000001
C      46.397300000000001     50.042849999999994     47.814650000000000
C      45.869299999999996     49.217949999999995     49.045549999999992
C      49.498900000000006     46.372549999999997     46.962750000000000
C      48.927199999999999     45.565750000000001     47.975350000000006
H      46.787099999999995     51.096250000000005     48.213749999999997
H      48.120000000000005     50.991449999999993     45.873549999999994
H      49.754400000000004     50.150449999999999     46.444849999999995
H      45.825599999999994     47.416850000000004     50.126450000000006
H      49.469700000000003     48.296349999999997     46.181950000000001
H      47.358699999999999     45.096749999999993     49.380849999999995
H      45.639499999999998     50.169850000000004     47.081549999999993
H      45.392300000000006     49.899049999999995     49.707349999999998
H      50.607699999999994     45.849349999999994     46.552449999999993
H      49.773600000000002     44.903749999999995     48.461349999999996
