18

C      48.194649999999996     47.228664999999992     47.592699999999986
C      47.829549999999998     48.628344999999996     47.905799999999999
C      47.274850000000001     46.415965000000000     46.913799999999995
C      46.563350000000000     49.139664999999994     47.412899999999993
C      49.647549999999995     47.004835000000000     47.427300000000002
C      48.764250000000004     49.555045000000007     48.593000000000004
C      45.916550000000001     46.782354999999995     47.149799999999999
C      45.626149999999996     48.097104999999999     47.375199999999992
C      50.489949999999993     48.020674999999997     47.870499999999993
C      50.071849999999998     49.246655000000004     48.609999999999999
H      47.775350000000003     45.596864999999994     46.625100000000003
H      46.363749999999996     50.181735000000003     47.599299999999999
H      50.297449999999998     46.100745000000003     47.085599999999999
H      48.133049999999997     50.403135000000006     49.230699999999999
H      44.974350000000001     46.043395000000004     47.024000000000001
H      44.514250000000004     48.787145000000010     47.257400000000004
H      51.485749999999996     47.926495000000003     47.723599999999990
H      50.794950000000000     49.799435000000003     49.374899999999997
