18

C      48.259149999999991     47.730400000000003     48.664049999999989
C      47.712849999999996     48.119300000000010     47.369550000000004
C      48.621249999999996     46.328100000000006     48.658550000000005
C      47.081150000000001     47.206300000000013     46.487850000000009
C      48.657750000000000     48.716899999999995     49.557950000000005
C      47.856850000000001     49.548500000000004     46.814850000000007
C      48.170150000000000     45.445800000000006     47.668650000000000
C      47.229849999999992     45.964400000000012     46.801550000000006
C      48.745049999999999     50.022100000000009     49.104150000000004
C      48.334550000000000     50.434700000000007     47.784450000000007
H      49.338349999999998     46.086600000000004     49.319649999999996
H      46.661650000000002     47.523400000000009     45.557249999999996
H      48.904850000000003     48.374300000000005     50.442750000000004
H      47.387049999999995     49.831800000000001     45.792950000000005
H      48.830750000000002     44.551700000000011     47.530050000000003
H      46.899349999999991     45.146200000000007     46.055450000000008
H      48.938250000000004     50.949700000000007     49.863950000000003
H      48.507950000000001     51.448299999999989     47.804150000000007
