18

C      48.765550000000005     47.896499999999989     48.356799999999993
C      47.349450000000004     47.679899999999996     48.095399999999998
C      49.270749999999992     48.466400000000000     49.605600000000003
C      46.296949999999995     48.136500000000005     49.019599999999990
C      49.684650000000005     47.655999999999999     47.279000000000003
C      46.942549999999997     47.070199999999993     46.831099999999999
C      48.166550000000001     48.576199999999993     50.472799999999999
C      46.640050000000002     48.595099999999995     50.354800000000004
C      49.163950000000000     47.392999999999994     46.005400000000002
C      47.766750000000002     47.152200000000001     45.739100000000001
H      50.170649999999995     48.651199999999996     49.988300000000002
H      45.186450000000008     47.914300000000004     48.836700000000000
H      50.813549999999992     47.596100000000000     47.503899999999994
H      45.905549999999991     46.702400000000004     46.842599999999997
H      48.333550000000002     49.250899999999994     51.283999999999999
H      46.012649999999994     49.297599999999996     51.072299999999998
H      49.940849999999998     47.265899999999995     45.119799999999998
H      47.379449999999991     47.142000000000003     44.716000000000001
