21

C      45.222099999999998     47.369299999999996     45.827249999999999
C      48.319299999999998     48.378399999999999     47.488650000000007
C      48.027100000000004     48.597800000000007     48.827449999999999
C      47.525400000000005     47.831899999999990     46.466250000000002
C      46.393400000000000     48.921300000000002     49.051050000000004
C      49.762500000000003     48.210200000000000     47.301350000000014
C      48.880300000000005     48.915000000000006     49.920150000000007
C      46.206099999999992     47.921899999999994     46.892350000000008
C      45.800600000000003     48.223699999999994     48.224950000000007
C      50.584900000000005     48.569800000000001     48.357850000000006
C      50.248199999999997     48.610399999999998     49.722750000000005
H      45.807100000000005     46.694500000000005     45.148550000000000
H      44.387100000000004     46.840900000000005     46.227250000000005
H      44.742400000000004     48.328199999999995     45.354550000000003
H      48.118200000000002     47.316000000000003     45.631050000000002
H      46.031199999999998     49.305499999999995     49.866150000000005
H      50.236099999999993     48.048899999999989     46.468750000000000
H      48.467200000000005     49.301900000000003     50.851450000000000
H      44.824500000000000     47.889699999999991     48.445350000000005
H      51.612899999999996     48.537999999999997     48.134150000000005
H      50.908999999999992     48.733399999999989     50.360450000000000
