18

C      48.055749999999989     48.572549999999993     48.813599999999987
C      47.663649999999997     47.221649999999997     48.386200000000002
C      49.286250000000003     48.528349999999996     49.458299999999994
C      48.161949999999997     45.959350000000001     48.515100000000004
C      47.315350000000002     49.758350000000000     48.559899999999999
C      46.414149999999999     47.176549999999999     47.438800000000001
C      50.137250000000002     47.399949999999997     49.239699999999999
C      49.564150000000005     46.120150000000002     48.930199999999999
C      46.489650000000005     49.695549999999997     47.522599999999997
C      45.651550000000007     48.457050000000002     47.121600000000001
H      49.470750000000002     49.666750000000000     49.461699999999993
H      47.575449999999996     45.193350000000002     48.122200000000007
H      47.820850000000000     50.806649999999998     48.390199999999993
H      46.697049999999997     46.400550000000003     46.616000000000000
H      51.284150000000004     47.561549999999997     49.356300000000005
H      50.198650000000008     45.277349999999998     48.741200000000006
H      46.082649999999994     50.283149999999999     46.538300000000007
H      44.715849999999996     48.191549999999999     47.483099999999993
