19

C      50.349249999999998     47.391799999999996     48.515925499999994
C      47.872349999999997     47.477999999999994     48.300695500000003
C      46.668750000000003     48.397599999999997     47.954905500000002
C      49.166849999999997     47.634100000000004     47.726605499999998
C      46.889049999999997     48.858100000000007     46.559555500000002
C      47.835149999999999     46.717200000000005     49.396285499999998
C      45.539150000000006     48.679000000000002     48.786895500000007
C      49.203950000000006     47.910100000000000     46.331475500000003
C      48.100849999999994     48.640000000000001     45.785195500000000
C      46.619650000000007     46.763800000000003     50.054485499999998
C      45.634450000000001     47.784999999999997     49.809995499999999
H      50.223250000000007     48.035300000000007     45.836935500000003
H      45.969650000000001     49.140000000000001     46.269675499999998
H      49.059049999999999     46.250100000000003     49.754265500000010
H      45.027950000000004     49.749899999999997     48.564305500000010
H      48.089449999999999     49.373800000000003     44.904534500000004
H      46.475549999999998     46.452500000000001     51.095465499999996
H      44.616249999999994     47.965100000000007     50.241355500000004
N      51.383750000000006     47.196899999999999     48.999035499999998
