6

C      47.637499999999996     48.122199999999999     48.808624999999992
C      48.098500000000001     47.693700000000007     47.521725000000004
H      48.150300000000001     48.823599999999999     49.374224999999996
H      49.147999999999996     48.023900000000005     47.331024999999997
H      46.852000000000004     47.408500000000004     49.328524999999999
H      47.647500000000008     47.176400000000001     46.625775000000004
