18

C      47.047649999999990     47.647149999999996     48.005249999999990
C      48.389150000000001     47.941349999999986     47.274849999999994
C      46.765850000000000     46.247950000000003     48.331349999999993
C      49.325650000000003     46.864750000000001     47.040550000000003
C      46.266350000000003     48.429149999999993     48.843049999999998
C      48.298849999999995     49.437349999999995     47.013650000000005
C      47.873749999999994     45.396549999999991     48.434149999999995
C      49.110250000000001     45.683949999999996     47.837049999999998
C      46.524549999999998     49.885749999999987     48.612749999999998
C      47.582450000000001     50.444649999999996     47.841349999999998
H      45.876049999999999     45.865049999999997     48.988049999999994
H      50.123950000000001     46.753249999999994     46.157249999999998
H      46.064450000000001     48.111750000000001     49.916850000000004
H      48.255249999999997     49.884050000000002     46.083149999999996
H      48.172049999999999     44.397949999999994     48.737450000000003
H      49.835949999999990     44.744749999999996     47.715550000000000
H      46.254350000000002     50.598549999999989     49.349449999999997
H      47.906950000000002     51.602050000000006     48.059450000000005
