6

C      48.388399999999997     48.126199999999990     47.735899999999994
C      47.311300000000003     48.018199999999993     48.402400000000000
H      48.519899999999993     47.633899999999997     46.743600000000001
H      49.206400000000002     48.835700000000003     47.731200000000001
H      46.967900000000000     48.608300000000000     49.256399999999999
H      46.793599999999998     47.164299999999997     47.768100000000004
