49

C      46.981600000000000     50.973399999999991     46.926049999999996
C      46.601500000000001     51.350999999999999     48.294450000000005
C      49.391499999999994     47.482900000000001     49.326350000000005
C      49.985900000000001     48.359899999999996     50.394850000000005
C      47.958500000000001     50.037999999999997     46.653450000000007
C      47.459900000000005     50.896600000000007     49.341550000000012
C      49.042400000000001     48.012900000000002     47.990450000000010
C      49.083900000000000     49.420400000000001     50.462950000000006
C      48.669399999999996     49.325900000000004     47.804250000000010
C      48.436999999999998     49.778400000000005     49.203650000000003
C      45.952799999999996     51.288700000000006     45.904949999999999
C      44.894300000000001     52.285300000000007     46.241750000000003
C      44.995699999999999     53.017400000000009     47.461350000000010
C      45.435600000000008     52.105500000000006     48.476450000000000
C      49.318799999999996     46.116200000000006     49.647150000000011
C      50.156199999999998     45.658299999999997     50.721650000000004
C      51.125199999999992     46.414900000000003     51.287549999999996
C      51.118700000000004     47.799599999999998     51.100450000000002
C      45.755099999999999     50.483100000000007     44.774450000000002
C      44.527900000000002     50.729900000000001     44.038550000000001
C      43.922300000000007     52.024299999999997     44.184250000000006
C      43.837699999999998     52.762900000000002     45.468550000000008
C      47.709199999999996     49.253100000000003     45.483150000000002
C      46.652400000000000     49.417000000000002     44.561550000000004
C      52.446200000000005     45.728099999999998     51.736850000000004
C      45.275300000000001     52.493800000000007     50.011049999999997
C      48.805099999999996     48.307500000000005     45.012950000000004
C      49.890199999999993     44.210099999999997     50.790050000000008
H      47.399999999999991     51.289100000000005     50.266450000000006
H      48.778800000000004     47.299300000000002     47.181150000000002
H      48.837699999999998     50.225300000000004     51.341149999999999
H      44.168599999999998     53.604399999999998     47.684950000000001
H      48.725700000000003     45.236699999999999     49.095950000000002
H      51.759399999999999     48.564999999999998     51.531950000000009
H      44.223100000000002     49.942999999999998     43.439750000000004
H      42.967399999999998     52.537999999999997     43.729150000000004
H      42.892800000000008     53.378399999999999     45.847650000000002
H      46.130700000000004     48.865000000000009     43.772650000000006
H      53.107199999999992     46.189599999999999     52.560249999999996
H      44.280799999999999     52.348900000000000     50.461550000000003
H      48.627099999999999     47.979399999999998     43.786550000000005
H      48.841399999999993     47.285399999999996     45.412150000000004
H      49.834199999999996     48.431100000000001     45.265850000000000
H      48.799399999999991     44.205100000000002     50.899550000000005
H      50.562500000000000     42.395600000000002     50.383250000000004
H      50.357599999999991     43.787300000000002     51.683750000000003
O      52.772499999999994     44.632199999999997     51.576850000000007
O      46.220199999999991     53.106899999999996     50.491550000000004
O      50.274799999999999     43.158400000000000     49.763750000000002
