18

C      48.607099999999988     47.647649999999999     47.578999999999994
C      47.488839999999996     47.743850000000002     48.491399999999999
C      49.674430000000001     48.642150000000008     47.622799999999991
C      47.660409999999999     48.609850000000002     49.703499999999998
C      48.652050000000003     46.729750000000003     46.535400000000003
C      46.446849999999998     46.842750000000002     48.622199999999999
C      49.630589999999998     49.564850000000000     48.720199999999998
C      48.572530000000000     49.543150000000004     49.734000000000002
C      47.394090000000006     46.130950000000006     46.438800000000001
C      46.412459999999996     46.055850000000000     47.464800000000004
H      50.622140000000002     48.359349999999999     46.936100000000003
H      46.952770000000001     48.651550000000007     50.558100000000003
H      49.406059999999997     46.509149999999998     45.486499999999999
H      45.531000000000006     47.005749999999999     49.171500000000002
H      50.181799999999996     50.466050000000003     48.542200000000001
H      48.970900000000000     50.602150000000002     50.112900000000003
H      47.160309999999996     45.397849999999998     45.441899999999997
H      45.377859999999998     45.486650000000004     47.309199999999997
