18

C      48.766899999999985     47.911049999999996     47.764649999999989
C      47.441400000000002     47.947749999999999     48.281349999999996
C      49.776570000000007     48.878249999999994     47.481050000000003
C      47.138199999999998     49.407050000000012     48.698550000000004
C      49.103200000000001     46.525250000000000     47.365749999999998
C      46.611899999999991     46.857550000000003     48.733250000000005
C      49.480911000000006     50.207150000000013     47.938750000000006
C      48.142600000000002     50.385949999999994     48.505150000000008
C      48.095100000000002     45.522750000000002     47.324249999999999
C      46.839100000000002     45.700749999999999     48.113850000000006
H      50.486400000000003     48.584249999999997     46.669750000000001
H      46.351100000000002     49.791150000000002     49.330249999999999
H      50.014267000000004     46.268750000000004     47.090049999999998
H      45.513599999999997     46.945450000000001     49.272650000000006
H      49.978402000000003     51.057250000000010     47.815249999999999
H      47.775400000000005     51.439650000000000     48.193549999999995
H      48.652699999999996     44.560350000000000     47.544950000000007
H      46.067300000000003     44.855950000000000     48.441350000000007
