6

C      48.633549999999985     47.847049999999996     47.625549999999990
C      47.480649999999997     48.203550000000000     48.355249999999991
H      46.963449999999995     47.322450000000003     48.792750000000005
H      48.866749999999996     46.794050000000006     47.381049999999995
H      46.808049999999994     49.205949999999994     48.189349999999997
H      49.191950000000006     48.587950000000014     47.207249999999995
