34

C      46.372499999999995     48.668199999999992     47.986399999999996
C      46.001500000000000     47.706099999999999     48.902000000000001
C      49.623699999999999     45.266700000000000     46.667900000000003
C      49.516900000000000     44.624200000000002     47.952300000000001
C      47.379000000000005     48.200900000000004     47.169300000000000
C      46.515500000000003     46.442099999999996     49.167500000000004
C      48.833700000000000     46.422200000000004     46.384100000000004
C      48.652299999999997     45.193799999999996     49.171899999999994
C      47.990500000000011     47.063600000000001     47.349899999999998
C      47.810900000000004     46.092500000000001     48.624799999999993
C      45.594999999999999     49.889899999999997     47.809500000000000
C      44.936999999999998     50.316600000000001     48.982700000000008
C      44.608699999999999     49.539900000000003     50.114400000000003
C      44.821500000000000     48.064799999999998     49.947200000000009
C      50.608900000000006     44.903300000000002     45.628000000000000
C      51.593499999999999     43.998899999999999     45.921700000000001
C      51.564500000000010     43.295999999999999     47.204200000000000
C      50.590499999999999     43.632100000000001     48.168199999999999
C      44.285200000000003     51.693899999999999     48.961299999999994
C      44.879400000000004     52.536100000000005     48.293900000000001
H      47.592399999999998     48.772300000000001     46.200899999999997
H      46.035899999999998     46.004199999999997     49.944099999999999
H      48.965400000000002     46.720500000000001     45.283600000000000
H      48.216400000000007     44.622000000000000     50.083100000000002
H      45.850800000000000     50.647800000000004     47.022599999999997
H      44.059200000000004     49.952699999999993     51.038100000000000
H      50.829800000000006     45.595299999999995     44.961900000000000
H      52.302599999999998     43.554099999999998     45.153800000000004
H      52.252900000000011     42.452100000000002     47.642899999999997
H      50.621499999999997     42.984999999999999     48.997799999999998
H      43.697400000000002     52.082999999999998     49.793199999999999
H      44.537700000000001     53.547899999999998     48.112600000000000
H      45.932500000000005     52.070399999999992     48.137900000000002
O      43.882599999999996     47.309200000000004     50.235599999999998
