17

C      47.632699999999993     48.764404999999989     47.980999999999995
C      48.250699999999995     47.848005000000001     48.912700000000008
C      48.324700000000007     49.948904999999996     47.334099999999999
C      49.758699999999997     47.894204999999999     49.087300000000006
C      46.340600000000002     48.447505000000000     47.673300000000005
C      47.623100000000001     46.688904999999998     49.301400000000008
C      49.559800000000003     50.124704999999992     47.951500000000003
C      50.369799999999998     49.101705000000003     48.630299999999998
C      45.437700000000000     48.905104999999999     46.999900000000004
C      46.829000000000001     45.623225000000005     49.590499999999999
H      45.713299999999997     45.765335000000000     49.607099999999996
H      48.027600000000000     50.838804999999994     46.889800000000001
H      50.430800000000005     47.100304999999999     49.520699999999998
H      49.950500000000005     51.164704999999998     47.986600000000003
H      51.403300000000002     49.451804999999993     49.003200000000000
H      44.596699999999998     49.260404999999992     46.392900000000004
H      47.158699999999996     44.835295000000002     49.042099999999998
