55

C      47.610349999999983     44.412149999999997     48.480099999999993
C      46.429049999999997     43.558350000000004     48.022500000000001
C      47.327750000000002     45.779049999999998     44.239899999999999
C      48.135550000000002     45.659250000000000     47.847899999999996
C      46.179650000000002     43.464150000000004     46.689399999999999
C      48.130249999999997     46.406750000000002     45.256099999999996
C      47.808349999999997     45.665050000000008     46.460299999999997
C      46.915450000000000     44.543450000000007     45.991099999999996
C      48.430450000000000     43.981949999999998     49.495999999999988
C      47.906349999999996     42.793050000000008     50.214700000000001
C      46.493249999999996     42.233550000000008     49.930299999999995
C      45.682849999999995     42.663850000000011     48.911499999999997
C      49.259049999999995     44.891750000000002     50.406499999999987
C      50.222649999999994     44.417650000000009     51.364699999999992
C      49.920349999999992     42.995950000000008     51.391799999999996
C      48.823349999999998     42.205550000000002     51.140899999999995
C      49.291249999999998     46.301749999999998     50.080700000000000
C      48.327649999999998     46.554450000000003     49.033699999999989
C      47.943449999999991     47.853350000000006     49.076799999999999
C      49.032149999999994     47.628349999999998     45.057199999999995
C      44.860349999999990     42.791350000000008     46.241699999999994
C      48.641449999999999     48.864850000000004     44.527400000000000
C      49.790050000000001     51.020450000000011     49.860599999999998
C      48.960549999999991     51.586650000000006     50.815500000000000
C      49.198950000000004     49.801550000000006     49.307299999999991
C      48.202449999999992     50.748050000000006     51.786200000000001
C      50.941449999999996     51.645949999999999     49.121499999999997
C      49.346550000000001     52.931250000000006     51.059699999999999
C      48.155549999999998     49.075650000000010     49.911299999999997
C      47.870449999999998     49.500650000000007     51.373799999999996
C      50.974950000000000     53.050049999999999     49.263100000000001
C      49.944449999999996     53.822749999999999     50.054400000000008
H      47.250149999999998     46.020350000000008     43.174900000000001
H      51.306149999999995     44.913950000000000     51.506200000000000
H      50.636149999999994     42.503650000000007     52.065199999999997
H      48.665149999999990     41.148849999999996     51.380099999999992
H      46.876249999999992     48.002150000000000     48.753400000000006
H      50.082149999999992     47.613650000000007     45.432600000000001
H      44.670250000000003     43.025850000000005     45.168099999999995
H      44.813049999999997     41.674850000000006     46.384399999999999
H      45.050049999999992     41.122450000000001     50.613299999999988
H      49.341050000000003     49.743750000000006     44.541999999999994
H      47.600850000000001     49.046650000000000     44.103299999999997
H      44.812149999999995     42.378950000000003     48.531299999999995
H      44.227849999999997     43.267350000000008     46.850699999999996
H      50.237050000000004     46.919550000000001     50.295299999999997
H      49.500650000000000     49.475450000000009     48.263700000000000
H      48.000149999999998     51.297550000000001     52.825099999999999
H      51.420150000000000     51.059950000000001     48.363000000000000
H      49.192450000000001     53.678250000000006     51.760299999999994
H      47.160949999999993     49.147950000000009     52.186100000000003
H      51.772150000000003     53.658950000000004     48.562499999999993
H      49.714750000000002     54.877549999999999     49.823699999999995
N      46.667749999999991     44.743150000000000     44.744999999999997
O      45.961649999999999     41.482150000000004     50.908099999999997
