18

C      47.861149999999995     47.253349999999998     48.737649999999995
C      47.649949999999997     48.671650000000000     48.358249999999998
C      46.811150000000005     46.394449999999992     48.191549999999999
C      46.395350000000001     49.301249999999996     48.230049999999999
C      49.238650000000000     46.715850000000003     48.548650000000002
C      48.749550000000006     49.539649999999995     48.096449999999997
C      45.746850000000002     47.068749999999994     47.587750000000000
C      45.433150000000005     48.418650000000000     47.977249999999998
C      50.257849999999998     47.528349999999989     48.173450000000003
C      50.029750000000000     48.889349999999993     48.095149999999997
H      46.901050000000005     45.370350000000002     47.830050000000000
H      46.081250000000004     50.358450000000005     47.740249999999996
H      49.240749999999998     45.640950000000004     48.794150000000002
H      48.460650000000008     50.629649999999998     47.981349999999999
H      44.932250000000003     46.526449999999997     47.205849999999998
H      44.520649999999996     48.991950000000003     47.653549999999996
H      51.479350000000004     47.033450000000002     47.805149999999998
H      50.868850000000002     49.506149999999991     47.853149999999999
