18

C      47.679149999999993     48.328099999999999     47.566789999999990
C      48.156650000000006     47.369400000000006     48.579870000000000
C      46.429850000000002     47.839800000000004     46.925469999999997
C      47.278550000000003     46.417500000000004     49.249879999999990
C      48.250350000000005     49.456900000000005     46.981160000000003
C      49.532649999999997     47.456100000000006     48.893780000000007
C      45.685850000000002     46.877200000000002     47.453919999999997
C      45.931450000000005     46.771400000000007     48.893279999999997
C      49.610849999999992     49.594700000000003     47.382590000000000
C      50.083549999999995     48.689600000000006     48.477069999999998
H      46.398750000000000     48.559600000000003     46.056319999999999
H      47.575850000000003     45.425700000000006     49.943680000000001
H      47.627650000000003     50.056500000000014     46.113650000000000
H      49.990150000000000     46.840700000000005     49.684379999999997
H      44.930150000000005     46.414300000000004     47.025449999999999
H      45.045950000000005     46.398500000000006     49.501679999999993
H      50.175350000000002     50.574299999999994     47.453689999999995
H      51.069849999999995     48.755300000000005     48.389629999999997
