45

C      48.700949999999992     49.318449999999991     45.816149999999993
C      49.121050000000004     49.314749999999997     50.702150000000003
C      50.033849999999994     44.989550000000001     47.733050000000006
C      48.321249999999999     49.726650000000006     47.136649999999989
C      49.045750000000005     47.944249999999997     45.584249999999997
C      48.226350000000004     49.538849999999996     49.627549999999999
C      49.889549999999993     45.815550000000002     46.605950000000007
C      49.691849999999995     48.002650000000003     50.208050000000000
C      49.755050000000004     45.708950000000002     49.068449999999999
C      48.386450000000004     48.893949999999997     48.383749999999992
C      49.048150000000000     47.033850000000001     46.683750000000003
C      49.116650000000000     47.088050000000003     49.268549999999991
C      48.477550000000001     47.461050000000000     47.999949999999998
C      48.231450000000002     50.183949999999996     44.752750000000006
C      47.487149999999993     51.416249999999998     45.070049999999995
C      47.330649999999999     51.952849999999998     46.305849999999992
C      47.799450000000000     51.037649999999999     47.377949999999998
C      47.454850000000000     51.573650000000001     48.643149999999991
C      47.270350000000001     50.690249999999992     49.721350000000001
C      49.424349999999997     48.509450000000001     43.522750000000002
C      48.904149999999994     49.910049999999998     43.478449999999995
C      49.150050000000000     50.147550000000003     51.876050000000006
C      45.375750000000004     51.551049999999996     50.861149999999995
C      46.414350000000006     50.716549999999998     50.961550000000003
C      50.063250000000004     49.895649999999996     52.749949999999998
C      50.235149999999997     43.438549999999999     47.740049999999997
H      50.462449999999997     43.239750000000001     46.662250000000000
H      47.194949999999999     52.881450000000001     46.526150000000001
H      49.752749999999999     45.530850000000001     45.614350000000002
H      50.454050000000002     47.802749999999996     50.969750000000005
H      50.846250000000005     46.020849999999996     48.941950000000006
H      49.508749999999999     44.841749999999998     49.777149999999992
H      47.504749999999994     52.327849999999998     44.467250000000007
H      46.738449999999993     52.426450000000003     48.635249999999999
H      49.395649999999996     48.353250000000003     42.467050000000000
H      49.102150000000002     50.810049999999997     42.753150000000005
H      48.691549999999999     51.136949999999999     51.967550000000003
H      44.954050000000002     52.052350000000004     49.911550000000005
H      44.815350000000002     51.889749999999992     51.877849999999995
H      46.619650000000000     50.127549999999999     51.777349999999998
H      50.508350000000000     48.869650000000000     52.546549999999996
H      50.298449999999995     50.484450000000010     53.532950000000000
H      49.137750000000004     43.118549999999999     48.054249999999996
H      51.184649999999998     43.186949999999996     48.356350000000006
N      49.475850000000001     47.590049999999998     44.418650000000000
