36

C      47.970499999999994     47.130049999999990     48.340499999999992
C      46.567599999999999     47.249250000000004     48.025799999999997
C      46.292400000000001     50.015749999999997     51.613599999999998
C      48.454999999999998     47.669649999999990     49.600599999999993
C      45.615700000000004     47.829949999999997     48.779800000000002
C      47.649700000000003     49.510549999999995     51.469400000000000
C      45.296900000000008     49.151849999999996     50.901000000000003
C      47.500799999999998     48.576349999999991     50.377800000000001
C      46.110700000000001     48.296749999999996     50.101000000000006
C      48.886099999999999     46.521049999999995     47.343299999999999
C      48.654200000000003     47.098549999999996     46.089999999999996
C      47.259900000000002     47.554149999999993     45.761400000000002
C      46.194400000000002     46.863050000000001     46.490000000000002
C      50.709800000000001     45.497749999999996     46.596699999999998
C      50.700800000000001     46.234549999999999     45.305000000000000
C      49.643700000000010     46.988749999999996     44.980100000000000
C      49.738200000000006     47.768050000000002     43.594799999999999
C      48.784900000000007     50.309349999999995     52.138100000000001
C      46.876800000000003     48.123249999999999     44.399099999999997
H      50.327900000000000     47.231649999999988     42.842599999999997
H      45.522800000000004     50.498949999999994     52.362900000000003
H      49.507300000000001     47.399649999999994     50.082100000000004
H      44.850000000000001     48.286850000000001     48.361699999999999
H      44.240700000000004     49.160049999999998     50.990599999999993
H      51.759299999999996     44.852750000000000     46.448999999999998
H      51.453600000000009     45.858350000000002     44.607599999999998
H      46.329700000000003     47.419849999999997     43.854900000000001
H      48.802100000000003     47.669849999999997     43.106400000000001
H      49.518500000000003     50.106949999999998     51.464599999999997
H      49.062500000000000     49.936549999999997     53.157400000000003
H      48.420700000000004     51.147250000000000     52.542899999999996
H      49.924199999999999     48.943649999999991     43.794899999999998
H      47.421300000000002     48.618250000000003     43.568599999999996
H      46.475099999999998     49.004349999999995     44.602699999999999
N      49.865099999999998     45.540349999999997     47.522399999999998
S      45.459000000000003     45.471049999999998     46.001200000000004
