32

C      46.702249999999992     47.468199999999996     47.767424999999989
C      46.219650000000001     46.898500000000006     48.971325000000000
C      44.949150000000003     43.330300000000001     46.113925000000002
C      46.425950000000000     46.689300000000003     46.516624999999998
C      45.545050000000003     45.717700000000001     48.542524999999998
C      45.193550000000002     44.607800000000005     46.081224999999996
C      45.606349999999992     45.600200000000001     47.078624999999995
C      44.734250000000003     45.166500000000006     49.649625000000000
C      47.363150000000005     48.629100000000001     47.652025000000002
C      48.043549999999996     48.953200000000002     48.984824999999994
C      47.611649999999997     48.390099999999997     50.255125000000000
C      46.733549999999994     47.349800000000002     50.350324999999991
C      47.842749999999995     49.201000000000001     46.318824999999997
C      48.815749999999994     50.245500000000000     46.463724999999997
C      49.228149999999999     50.663500000000006     47.731324999999998
C      48.675049999999985     50.186200000000007     49.008524999999999
C      46.203749999999999     47.386000000000003     45.333124999999995
C      47.087050000000005     48.531100000000002     45.162224999999999
C      51.912149999999997     52.159200000000006     46.484724999999997
H      46.181349999999995     46.076400000000000     51.479824999999998
H      44.051050000000004     43.932000000000002     51.431324999999994
H      45.276150000000001     42.930399999999999     47.091324999999998
H      44.726150000000004     42.984299999999998     45.073425000000000
H      47.988349999999997     48.972100000000005     51.140224999999994
H      49.027549999999991     50.961000000000006     45.705424999999998
H      49.200749999999999     50.306000000000004     50.111824999999996
H      45.508150000000001     46.953099999999999     44.596574999999994
H      47.811750000000004     48.906500000000001     44.346375000000002
N      44.252749999999992     44.613500000000002     50.563125000000007
O      46.440849999999998     47.106100000000005     51.653624999999998
O      51.948949999999996     53.069600000000001     45.779224999999997
S      50.329449999999994     52.073000000000000     47.916924999999999
