88

C      47.468849999999989     50.279749999999993     46.292799999999993
C      48.314249999999994     51.270249999999997     46.940800000000003
C      44.783650000000002     51.655050000000010     49.790800000000004
C      46.046749999999996     50.273049999999998     46.805100000000010
C      47.913849999999996     52.130549999999992     48.119199999999992
C      44.427050000000001     51.049750000000003     48.577400000000011
C      45.743549999999992     51.057549999999999     47.981600000000000
C      46.513050000000000     52.070450000000001     48.532000000000004
C      47.903649999999992     49.423949999999998     45.228200000000001
C      49.323150000000005     49.350749999999998     44.680700000000002
C      50.110849999999992     50.384550000000004     45.269000000000005
C      49.614950000000000     51.357350000000004     46.407600000000002
C      46.951850000000000     48.687750000000001     44.516700000000000
C      47.532049999999991     47.900350000000003     43.364699999999999
C      48.767149999999994     47.875750000000004     42.859500000000004
C      49.792149999999999     48.700850000000003     43.536999999999999
C      45.606549999999999     48.600949999999997     44.917800000000000
C      45.212150000000001     49.264150000000001     46.004300000000001
C      51.350450000000002     50.766449999999999     44.676800000000000
C      52.106949999999998     51.830350000000003     45.201500000000003
C      51.861349999999995     52.439850000000000     46.429100000000005
C      50.452149999999996     52.321450000000006     46.930800000000005
C      51.131949999999996     48.793250000000000     43.123600000000003
C      52.001749999999994     49.705150000000003     43.636200000000002
C      48.671549999999996     53.315949999999994     48.420800000000000
C      50.040649999999992     53.176750000000006     48.022300000000001
C      53.474349999999994     49.635249999999999     43.484500000000004
C      52.961949999999995     53.008050000000004     47.174099999999996
C      43.873849999999997     51.181050000000006     50.838700000000003
C      43.855449999999998     49.664450000000002     51.393900000000002
C      48.282949999999992     45.615549999999999     49.658100000000005
C      48.731149999999992     44.489950000000000     48.877400000000002
C      51.904849999999989     44.664850000000001     52.131199999999993
C      48.645649999999996     45.781350000000003     50.953599999999994
C      50.041849999999997     43.952150000000003     49.049199999999999
C      50.545349999999992     45.053150000000002     52.385700000000000
C      52.104349999999997     43.884250000000002     50.838500000000003
C      49.847949999999997     44.857450000000000     51.192800000000005
C      50.785549999999994     44.282049999999998     50.195200000000000
C      46.843150000000001     45.966149999999999     49.403100000000009
C      46.149549999999998     45.393450000000001     48.279799999999994
C      46.639049999999997     44.353749999999998     47.524400000000000
C      47.890449999999994     43.835450000000002     47.910600000000002
C      46.329050000000002     47.076250000000002     50.184399999999997
C      45.087749999999993     47.623249999999999     50.052800000000005
C      44.389149999999994     47.092550000000003     48.893400000000000
C      44.821449999999999     46.174250000000001     48.085400000000007
C      48.349550000000001     47.045250000000003     51.581400000000002
C      46.994949999999996     47.725949999999997     51.461800000000011
C      50.782449999999990     43.078850000000003     47.902199999999993
C      52.661449999999995     44.589449999999999     53.344100000000005
C      48.941449999999996     47.566150000000000     52.798200000000001
C      44.369949999999996     48.663350000000001     50.803399999999996
C      53.343550000000000     43.748750000000001     50.147600000000004
C      42.417049999999996     51.601649999999999     50.505399999999995
H      43.597949999999997     50.518350000000005     48.429500000000004
H      46.921649999999993     47.484850000000002     42.721700000000006
H      49.121049999999997     47.466450000000002     41.889600000000002
H      45.029549999999993     47.653350000000003     44.798100000000005
H      44.041149999999995     49.120950000000001     46.667700000000011
H      53.118150000000007     52.099450000000012     44.686000000000000
H      51.336750000000002     48.157249999999998     42.244700000000002
H      48.594649999999994     53.968750000000000     49.375700000000002
H      50.867649999999998     53.754950000000001     48.488900000000001
H      54.169649999999997     50.218650000000004     44.108000000000004
H      52.580949999999994     53.241050000000008     48.157200000000003
H      44.380549999999992     51.694350000000000     51.644400000000005
H      46.080549999999995     44.058750000000003     46.670300000000012
H      48.379150000000003     42.909250000000000     47.785600000000002
H      43.737949999999998     47.722950000000004     48.690200000000004
H      44.511849999999995     45.486750000000001     47.139200000000002
H      47.115949999999998     48.828850000000003     51.482600000000005
H      46.554650000000002     47.404550000000000     52.483400000000003
H      51.262049999999995     43.830849999999998     47.185100000000006
H      53.616149999999998     44.019649999999999     53.101900000000001
H      49.870849999999997     47.305250000000001     52.933100000000003
H      50.270750000000000     45.580750000000002     53.398700000000005
H      48.308949999999989     48.159350000000003     53.589800000000011
H      43.004550000000002     49.409750000000003     52.303800000000003
H      52.809649999999998     45.447350000000000     54.110399999999998
H      54.264350000000000     43.945149999999998     50.647700000000000
H      53.487449999999995     43.531050000000000     48.987200000000001
H      41.735650000000000     50.557449999999996     50.525000000000006
N      45.902449999999995     52.341549999999998     49.673199999999994
O      54.107549999999996     48.754449999999999     42.959600000000002
O      54.142149999999994     52.754350000000009     47.417200000000001
O      50.372149999999998     42.031250000000000     47.546800000000005
O      42.071049999999993     52.518050000000009     49.791399999999996
