19

C      48.714199999999991     47.592499999999987     48.244599999999998
C      48.104500000000002     48.705499999999994     48.932800000000000
C      49.170199999999994     46.346300000000006     49.005400000000002
C      47.098500000000001     48.320100000000004     49.944800000000001
C      49.254700000000000     47.686000000000000     46.883200000000002
C      47.860900000000001     49.937900000000006     48.262500000000003
C      48.040800000000004     46.146399999999993     50.086100000000002
C      47.022700000000000     47.054899999999996     50.508400000000009
C      48.939900000000009     48.968200000000003     46.316300000000005
C      48.291399999999996     50.094299999999997     46.951500000000003
H      48.982400000000013     48.544500000000006     45.201200000000000
H      49.677000000000007     45.426200000000001     48.318500000000000
H      50.068200000000004     46.577499999999993     49.635800000000003
H      46.215500000000006     48.899600000000000     50.155799999999999
H      47.543300000000002     50.783700000000003     48.884700000000002
H      48.007599999999996     45.203700000000005     50.774200000000008
H      45.931799999999996     46.641699999999993     50.798800000000000
H      50.008400000000009     46.968799999999995     46.558200000000006
H      47.755799999999994     50.796299999999995     46.310500000000005
