56

C      49.580444999999997     53.301299999999998     45.807099999999991
C      49.923944999999989     49.213499999999996     48.264699999999998
C      49.530344999999997     49.470600000000005     46.937999999999995
C      46.269745000000000     45.964500000000001     49.030899999999995
C      45.460144999999997     47.139899999999997     48.572600000000001
C      49.341245000000001     48.198200000000000     49.091100000000004
C      48.110045000000000     49.137799999999999     46.528299999999994
C      47.543844999999990     46.417299999999997     49.402800000000006
C      45.938444999999987     48.242599999999996     47.860099999999996
C      47.978044999999995     47.665199999999999     48.726099999999995
C      47.333744999999993     48.255399999999995     47.465600000000002
C      51.263587000000001     49.768400000000000     48.517400000000002
C      52.176775000000006     50.620699999999999     47.762899999999995
C      51.575164999999998     50.932999999999993     46.563300000000005
C      50.225444999999993     50.545900000000003     46.312700000000000
C      45.799144999999996     44.606499999999997     48.916199999999996
C      44.444944999999990     44.500299999999996     48.504700000000007
C      43.544344999999993     45.634600000000006     48.757399999999997
C      44.101544999999987     46.933499999999995     48.986100000000000
C      50.212844999999987     47.511099999999999     50.030800000000006
C      51.589825000000005     47.923800000000000     50.169800000000002
C      52.146775000000005     48.936899999999994     49.388200000000005
C      48.448344999999989     49.637199999999993     45.037299999999995
C      48.627645000000001     52.219700000000003     45.275200000000005
C      49.528544999999994     50.969499999999996     44.994899999999994
C      46.527544999999989     42.280100000000004     49.022799999999997
C      46.881144999999989     43.541600000000003     48.620200000000004
C      49.654444999999996     46.327399999999997     50.506599999999999
C      50.273644999999988     45.726900000000001     51.573200000000007
C      48.050244999999990     44.044299999999993     47.795300000000005
H      49.695944999999995     52.906400000000005     46.768300000000004
H      50.471344999999999     53.208699999999993     45.268499999999996
H      49.361345000000000     54.388300000000001     45.499100000000006
H      51.975545000000011     51.736199999999997     45.835000000000001
H      44.185144999999991     43.845900000000000     47.525200000000005
H      42.575644999999994     45.454399999999993     48.350400000000000
H      43.357544999999988     47.495499999999993     48.460299999999997
H      51.176154000000011     46.065799999999996     51.943199999999997
H      53.215285000000009     48.998400000000004     49.622000000000007
H      52.426855000000003     47.554900000000004     50.824099999999994
H      47.416744999999992     49.902799999999999     44.542400000000008
H      48.897344999999987     48.818600000000004     44.543399999999998
H      48.200644999999994     52.423900000000003     44.322300000000006
H      47.754745000000000     52.133700000000005     45.933399999999999
H      50.018644999999992     51.212099999999992     44.056800000000003
H      47.254544999999993     41.611699999999999     48.949199999999998
H      45.603944999999996     41.895799999999994     49.460600000000007
H      49.946145000000001     44.605599999999995     51.544500000000006
H      45.742244999999997     49.919499999999999     47.027600000000000
H      52.674185000000008     51.365700000000004     49.838000000000001
H      47.798144999999991     44.660200000000003     46.847000000000001
H      48.244744999999995     43.104500000000002     47.266600000000004
H      48.988945000000001     44.145399999999995     48.442200000000007
O      48.266844999999989     45.802099999999996     50.298800000000007
O      45.115144999999998     49.385300000000001     47.614899999999999
S      53.424355000000006     51.593099999999993     48.743000000000002
