6

C      47.968849999999996     47.855199999999989     48.711979999999997
C      47.975750000000005     48.102400000000003     47.444499999999991
H      48.687250000000006     48.124299999999991     49.398849999999996
H      47.230350000000001     47.126199999999997     49.299039999999991
H      47.299850000000006     47.580200000000005     46.601150000000004
H      48.769649999999999     48.873800000000003     46.891059999999996
