18

C      48.735599999999998     47.703949999999992     47.967199999999991
C      47.428000000000004     47.607050000000001     48.619000000000000
C      48.787400000000005     47.056650000000005     46.588700000000003
C      46.325800000000001     47.129850000000005     47.809899999999999
C      49.852000000000004     48.105850000000004     48.669500000000014
C      47.273099999999999     48.346950000000007     49.733699999999999
C      47.565100000000001     46.944650000000010     45.824300000000008
C      46.392700000000005     46.597650000000002     46.477000000000004
C      49.722999999999999     48.662850000000006     50.056400000000011
C      48.400200000000005     48.899650000000008     50.401499999999999
H      49.859800000000007     47.405850000000001     46.432000000000002
H      45.192700000000002     47.304250000000010     47.768400000000000
H      50.807299999999998     47.878850000000000     48.390400000000000
H      46.277900000000002     48.607550000000003     50.097999999999999
H      47.787300000000002     46.618350000000007     44.716600000000000
H      45.503300000000003     46.420749999999998     45.843400000000003
H      50.445300000000003     49.085750000000004     50.698600000000013
H      47.997500000000002     49.579250000000002     51.283400000000000
