18

C      48.027799999999999     47.182249999999996     47.454449999999994
C      48.087400000000002     48.507150000000003     47.870250000000006
C      46.845900000000000     46.482450000000007     48.068549999999995
C      48.140000000000001     48.589350000000003     49.330649999999999
C      48.824900000000000     46.658650000000002     46.297550000000001
C      48.779899999999998     49.545549999999999     47.047149999999995
C      46.511300000000006     46.874550000000006     49.210749999999997
C      47.364800000000002     47.688950000000006     50.016349999999996
C      49.744200000000006     47.581150000000001     45.785950000000000
C      49.306100000000001     48.948450000000001     45.869050000000001
H      46.038600000000002     46.012550000000005     47.317749999999997
H      48.822100000000006     49.427150000000005     49.841950000000004
H      49.093899999999991     45.461750000000002     46.266150000000003
H      48.565300000000008     50.538249999999998     46.936650000000000
H      45.513000000000005     46.329050000000002     49.700350000000007
H      47.334299999999999     47.676949999999998     51.076650000000001
H      50.486999999999995     47.316450000000003     44.923349999999999
H      49.307699999999997     49.690350000000002     45.150250000000000
