57

C      48.322249999999997     46.280654999999996     47.299709000000000
C      48.041950000000000     47.665314999999993     46.975879000000006
C      46.701250000000002     45.819384999999997     42.614269000000007
C      48.326149999999998     45.363405000000000     46.176209000000000
C      47.660449999999997     48.183324999999996     45.643079000000000
C      47.509150000000005     45.025504999999995     43.701269000000003
C      46.552549999999997     47.044224999999997     43.485529000000007
C      47.899749999999997     45.858675000000005     44.809259000000004
C      47.292050000000003     47.099234999999993     44.681419000000005
C      48.864649999999997     45.834045000000003     48.524869000000002
C      48.805549999999997     46.504064999999997     49.736159000000001
C      48.357550000000003     47.904974999999993     49.373619000000005
C      47.964749999999995     48.503434999999996     48.136059000000003
C      49.351950000000002     44.466655000000003     48.609758999999997
C      49.273150000000001     43.909525000000002     49.951599000000002
C      48.957849999999993     44.688315000000003     51.118699000000007
C      48.849350000000001     46.164614999999998     51.069299000000001
C      49.268850000000000     43.553974999999994     47.528269000000002
C      48.817750000000004     44.010024999999999     46.180039000000008
C      48.391949999999994     48.935834999999997     50.398099000000002
C      48.309449999999998     50.229534999999998     49.973199000000008
C      47.923149999999993     50.854534999999998     48.622149000000007
C      47.581750000000000     49.990034999999992     47.602829000000014
C      48.544349999999994     47.082474999999988     52.234199000000004
C      48.259649999999993     48.517664999999994     51.943199000000007
C      47.343649999999997     49.390734999999992     45.189399000000002
C      47.446650000000005     50.339934999999997     46.247059000000007
C      49.355050000000006     46.875154999999992     53.358399000000006
C      50.098950000000002     47.890095000000002     53.904299000000002
C      50.815150000000003     48.912935000000004     54.322099000000009
C      48.170149999999992     52.335435000000004     48.297939000000000
C      45.824550000000002     48.106425000000002     42.643019000000002
C      46.601550000000003     45.606205000000003     41.288359000000007
C      48.753749999999997     52.593934999999988     47.031399000000008
H      47.910449999999997     44.083524999999995     43.586609000000003
H      48.452050000000000     42.312065000000004     45.127809000000006
H      49.343549999999993     42.799075000000002     50.165999000000006
H      48.652450000000002     44.347875000000002     52.164299000000000
H      49.201949999999997     42.508534999999995     47.663169000000003
H      48.255650000000003     50.821134999999998     50.773099000000002
H      47.427149999999997     48.919434999999993     52.364399000000006
H      46.942949999999996     51.273434999999992     45.895079000000003
H      48.196650000000005     53.111534999999989     48.910989000000001
H      47.007750000000001     49.556335000000004     44.078229000000007
H      49.753950000000003     45.611495000000005     54.840799000000004
H      49.080050000000000     49.032235000000000     52.422099000000003
H      50.954049999999995     48.747634999999988     55.403998999999999
H      50.911950000000004     49.979635000000002     54.092499000000004
H      49.046849999999992     51.641234999999995     46.429179000000005
H      45.630749999999992     47.913854999999998     41.600539000000005
H      46.603149999999999     48.976534999999998     42.526459000000003
H      45.045950000000005     48.363694999999993     43.481979000000003
H      46.675349999999995     44.546414999999996     40.974249000000000
H      46.705650000000006     46.581644999999995     40.596001000000001
H      48.953249999999997     53.687934999999996     46.695629000000004
O      49.084450000000004     45.786924999999997     54.072699000000000
O      49.023650000000004     43.157254999999992     45.076169000000007
