18

C      48.261899999999997     48.476799999999997     47.315299999999993
C      48.572899999999990     47.337000000000003     48.147799999999997
C      48.640000000000001     49.880000000000003     47.754299999999994
C      49.372699999999995     47.594100000000005     49.325799999999994
C      47.408900000000003     48.586199999999998     46.156199999999991
C      48.169499999999999     46.099800000000002     47.475699999999996
C      49.447000000000003     50.068000000000005     48.842099999999995
C      49.650199999999998     48.874000000000002     49.686500000000002
C      46.955500000000001     47.403600000000004     45.739100000000001
C      47.391800000000003     46.138100000000001     46.329599999999992
H      48.409400000000005     50.720700000000001     47.093600000000002
H      49.527799999999999     46.792800000000007     50.248799999999996
H      47.171800000000005     49.575800000000008     45.666000000000004
H      48.661000000000001     45.204400000000000     48.012200000000000
H      49.914100000000005     50.795600000000000     49.315499999999993
H      49.896500000000003     48.937999999999995     50.858799999999995
H      46.085899999999995     47.243500000000004     45.141200000000005
H      46.847099999999998     45.279299999999999     46.008599999999994
