18

C      47.902549999999991     48.974199999999996     48.613949999999996
C      48.298749999999998     48.364499999999992     47.373649999999998
C      49.000950000000003     47.156499999999994     47.393450000000001
C      49.499349999999993     46.947800000000001     48.649250000000009
C      49.179349999999999     47.734899999999996     49.824550000000002
C      48.957850000000008     46.030500000000004     46.138850000000005
C      46.728549999999998     49.853999999999999     48.646250000000009
C      47.099149999999995     48.195099999999996     46.344350000000006
H      49.951549999999997     45.965299999999999     48.853850000000008
H      48.272350000000003     45.217900000000000     46.462750000000000
H      49.776050000000012     46.101200000000006     50.894250000000000
H      46.947249999999997     47.089799999999997     46.225650000000002
H      47.050349999999995     48.408500000000004     45.261449999999996
H      46.048450000000003     48.515900000000002     46.424250000000001
N      48.462649999999996     48.754199999999997     49.848849999999999
N      46.075850000000003     50.782100000000000     48.751249999999999
O      49.303950000000000     46.349400000000003     45.015349999999998
O      49.358249999999998     47.043700000000001     50.984650000000002
