64

C      42.905149999999992     47.096199999999996     50.537250000000000
C      52.657550000000001     48.242999999999995     46.534350000000003
C      44.292149999999992     47.512000000000000     50.944750000000006
C      52.224949999999993     48.624699999999990     47.946050000000007
C      42.614949999999993     47.450999999999993     49.189550000000004
C      51.761849999999995     48.188400000000001     45.443150000000003
C      45.239949999999993     47.942599999999985     49.921150000000004
C      50.898449999999997     49.204499999999996     48.176750000000006
C      43.144949999999994     48.778099999999995     46.985450000000007
C      44.204749999999990     49.086299999999994     46.006150000000005
C      49.242750000000001     48.356700000000004     44.988850000000006
C      46.697350000000000     48.234999999999999     45.439750000000004
C      47.395049999999998     48.794699999999992     48.146950000000004
C      43.503349999999998     47.975899999999996     48.105250000000005
C      50.463549999999998     48.251899999999992     45.749750000000006
C      45.579650000000001     48.664900000000003     46.328850000000003
C      48.157949999999985     48.209999999999994     45.891550000000002
C      44.939349999999990     48.274400000000000     48.553650000000005
C      50.058349999999990     48.600899999999996     47.197850000000003
C      46.009549999999990     48.525999999999996     47.757350000000002
C      48.517749999999992     48.646900000000002     47.118350000000007
C      46.661749999999998     48.148399999999995     50.448350000000005
C      47.614049999999992     48.536400000000000     49.583250000000007
C      41.860349999999997     46.736300000000000     51.449450000000006
C      42.052650000000000     46.899699999999996     52.833250000000014
C      43.399149999999992     46.727499999999992     53.181850000000004
C      44.548949999999991     47.074100000000001     52.359950000000005
C      45.932249999999996     47.147699999999986     52.719550000000005
C      46.761349999999993     47.980199999999996     51.872850000000007
C      54.080749999999995     48.177199999999999     46.629950000000008
C      54.927849999999992     48.469999999999999     47.831050000000005
C      54.337849999999989     48.527799999999999     49.128050000000002
C      52.933349999999990     48.584499999999991     49.137650000000008
C      41.329049999999995     47.149099999999990     48.747050000000002
C      40.161749999999998     46.762500000000003     49.505850000000002
C      40.586849999999998     46.116799999999998     50.761450000000004
C      52.098949999999988     48.408799999999985     43.961550000000003
C      51.959549999999993     47.297600000000003     43.032150000000001
C      54.920749999999998     48.106399999999994     45.276650000000004
C      55.716849999999994     49.261200000000002     44.819350000000007
H      39.148550000000000     46.646900000000002     48.975650000000002
H      50.516349999999989     50.146299999999997     48.767550000000007
H      42.147549999999995     48.661000000000001     46.447950000000006
H      44.024149999999992     49.488500000000002     44.951550000000005
H      49.181849999999997     48.322699999999998     43.737950000000005
H      48.670149999999992     48.562200000000004     49.969150000000006
H      41.225649999999987     46.796499999999995     53.524150000000013
H      43.717649999999992     46.300600000000003     54.040749999999996
H      46.189549999999997     46.680499999999995     53.758750000000006
H      47.760549999999995     48.374099999999984     52.400849999999998
H      56.048349999999999     48.151299999999992     47.939350000000005
H      54.776649999999989     48.824799999999996     50.008450000000003
H      52.372549999999990     48.960200000000000     50.334050000000005
H      41.252449999999996     47.062299999999993     47.708350000000003
H      39.908349999999999     45.853700000000003     51.410250000000012
H      51.396049999999988     46.455799999999996     43.177150000000005
H      51.825749999999985     47.529099999999985     41.959250000000004
H      52.180650000000000     49.496399999999994     43.695850000000007
H      55.441749999999999     47.116000000000000     45.086150000000004
H      55.394449999999992     50.102499999999992     45.442750000000004
H      56.851450000000000     49.077500000000001     45.058950000000003
H      55.330749999999995     49.411999999999992     43.802850000000007
H      54.212949999999992     48.358599999999996     44.381750000000004
O      46.716849999999994     48.645600000000002     44.289650000000002
