6

C      47.532149999999987     47.959649999999989     48.371749999999992
C      48.377549999999999     48.094149999999999     47.321049999999993
H      47.453249999999997     48.391050000000007     49.359450000000002
H      47.097949999999997     47.023150000000001     48.501950000000001
H      48.902050000000003     48.976849999999999     47.367749999999994
H      48.416750000000008     47.358449999999998     46.640549999999998
