18

C      47.888249999999992     47.286949999999990     47.767899999999997
C      47.476849999999999     48.506650000000000     48.246099999999991
C      47.928049999999999     46.095549999999996     48.488700000000001
C      47.551150000000007     48.441549999999999     49.699300000000001
C      48.177250000000001     47.035450000000004     46.377500000000005
C      47.441150000000007     49.607750000000003     47.488499999999995
C      48.161349999999999     46.207249999999995     49.888799999999996
C      47.933250000000001     47.459250000000004     50.633199999999995
C      47.683549999999997     48.022349999999996     45.412799999999997
C      47.530249999999995     49.296450000000000     46.114200000000004
H      48.663250000000005     45.311150000000005     47.904900000000005
H      47.195149999999998     49.413549999999994     50.273999999999994
H      48.835949999999997     46.339949999999995     45.966799999999999
H      47.164050000000003     50.688849999999995     47.742899999999999
H      47.693749999999994     45.511950000000006     50.629500000000000
H      47.855149999999995     47.774650000000001     51.637200000000000
H      47.906250000000000     48.007050000000000     44.362800000000000
H      48.220250000000007     50.181050000000006     45.592400000000005
