18

C      48.674749999999989     48.343750000000000     47.565249999999992
C      47.410049999999998     48.014449999999997     48.142249999999997
C      49.264849999999996     47.362250000000003     46.672049999999999
C      46.661550000000005     46.845849999999999     47.831049999999998
C      49.529049999999998     49.438350000000000     47.885249999999992
C      46.875850000000000     49.210350000000005     48.947349999999993
C      48.531350000000003     46.078850000000003     46.655049999999996
C      47.211550000000003     45.770949999999999     47.185949999999998
C      49.095550000000003     50.193049999999999     48.903749999999995
C      47.759950000000003     50.239449999999991     49.300050000000006
H      50.351349999999996     47.560649999999995     46.216450000000002
H      45.625550000000004     46.834249999999997     48.299249999999994
H      50.374449999999996     49.885649999999998     47.520949999999999
H      45.865250000000003     49.147350000000003     49.112850000000002
H      48.995550000000009     45.180650000000000     46.827350000000003
H      46.743849999999995     44.925349999999995     47.187549999999995
H      49.772149999999996     51.054949999999991     49.113049999999994
H      47.388350000000003     51.074650000000005     49.783549999999998
