18

C      48.315899999999999     48.384950000000003     47.333199999999991
C      47.535099999999993     47.445750000000011     48.406899999999993
C      48.238800000000005     47.953850000000010     46.002099999999999
C      47.053300000000000     46.254250000000006     48.054099999999991
C      48.893999999999998     49.614750000000008     47.918399999999991
C      47.555699999999995     47.787650000000006     49.734299999999990
C      47.600900000000003     46.786750000000005     45.668599999999998
C      46.737400000000001     46.183850000000000     46.633299999999991
C      48.817600000000006     49.720850000000006     49.356399999999994
C      48.196099999999994     48.842450000000007     50.323799999999991
H      48.536600000000000     48.685450000000010     45.356800000000007
H      46.722599999999993     45.375650000000000     48.612399999999994
H      49.720899999999993     50.054750000000006     47.255499999999998
H      46.957699999999996     47.150050000000000     50.544200000000004
H      47.648199999999996     46.675550000000008     44.556200000000004
H      46.279100000000007     45.406050000000000     46.171099999999996
H      49.551700000000004     50.624350000000000     49.730199999999996
H      48.276800000000001     48.819350000000007     51.443799999999996
