18

C      47.906599999999997     47.347149999999999     48.338149999999999
C      48.435000000000002     48.628949999999996     47.760950000000008
C      48.216199999999986     46.143350000000005     47.643750000000004
C      49.077500000000001     48.692550000000004     46.424850000000006
C      47.012500000000003     47.418650000000007     49.441449999999996
C      47.681799999999996     49.776450000000004     48.129950000000008
C      49.150300000000001     46.140549999999998     46.640150000000006
C      49.418399999999991     47.387250000000002     46.000950000000003
C      46.699100000000001     48.560449999999996     50.088250000000009
C      47.049300000000002     49.759750000000004     49.419150000000009
H      47.746899999999997     45.295750000000005     48.197150000000008
H      49.146900000000002     49.469349999999999     45.696050000000007
H      46.594499999999996     46.601649999999999     49.987550000000006
H      47.632400000000004     50.848149999999997     48.100850000000008
H      49.617699999999999     45.151850000000003     46.422550000000008
H      49.814499999999995     47.470950000000009     44.950650000000003
H      46.185500000000005     48.362950000000005     51.049349999999997
H      46.701499999999996     50.655850000000008     50.073950000000004
