18

C      47.748949999999986     48.109099999999991     48.741199999999992
C      47.849050000000005     48.222099999999998     47.146799999999992
C      48.127949999999998     49.392600000000002     49.313899999999997
C      48.828449999999997     49.063900000000004     46.515300000000003
C      47.255549999999992     46.986899999999991     49.376500000000000
C      47.120049999999992     47.395299999999992     46.421100000000003
C      49.075249999999997     50.198599999999999     48.768899999999995
C      49.291649999999990     50.148799999999994     47.331600000000002
C      46.892349999999993     45.947500000000005     48.491999999999997
C      46.644549999999995     46.245899999999992     47.160499999999992
H      47.869349999999997     49.291399999999996     50.538699999999999
H      49.330649999999999     48.707899999999995     45.516200000000005
H      47.251649999999998     46.696299999999994     50.667999999999999
H      47.163449999999997     47.266499999999994     45.332000000000001
H      49.284149999999997     50.995400000000004     49.377599999999994
H      49.826750000000004     51.021400000000000     46.740000000000002
H      46.656449999999992     44.978600000000000     49.073399999999999
H      46.173249999999996     45.408400000000000     46.844599999999993
