18

C      47.746099999999984     47.214300000000001     47.650399999999991
C      48.703799999999994     47.850099999999998     48.556999999999995
C      46.554099999999998     46.536500000000004     47.952099999999994
C      48.540499999999994     47.330200000000005     49.827099999999994
C      47.939099999999989     47.544700000000006     46.162900000000000
C      49.928899999999992     48.644400000000005     48.170399999999994
C      46.242799999999995     46.562500000000007     49.303900000000006
C      47.325499999999998     46.590700000000005     50.312000000000005
C      49.026699999999998     48.543100000000010     46.012499999999996
C      50.029899999999991     49.060100000000006     46.889800000000001
H      45.809499999999993     46.326300000000003     47.213299999999997
H      49.317799999999998     47.329500000000010     50.585000000000001
H      47.219799999999992     47.643900000000009     45.319099999999999
H      50.657699999999998     49.243100000000013     48.942200000000007
H      45.301499999999997     46.369100000000003     49.911499999999997
H      47.191299999999991     46.406200000000005     51.328799999999994
H      49.152699999999989     48.581800000000015     44.671200000000006
H      50.698500000000003     49.673699999999997     46.457799999999999
