56

C      51.633899999999990     43.496614999999991     48.907034999999993
C      53.900300000000001     43.847714999999994     47.626225000000005
C      45.062800000000003     49.823205000000002     48.330534999999998
C      46.205399999999997     50.565725000000000     47.745634999999993
C      52.918700000000001     46.035286999999997     46.321404999999999
C      45.179499999999997     48.392335000000003     48.505634999999998
C      51.999499999999998     45.094214999999991     46.895614999999992
C      52.409999999999997     47.343384999999998     46.550034999999994
C      47.514800000000001     49.958114999999992     47.426464999999993
C      49.329599999999999     45.464801999999992     47.360744999999994
C      46.961599999999997     46.406705000000002     48.382035000000002
C      49.997799999999998     48.309004999999999     46.894194999999996
C      50.694000000000003     45.945061999999993     47.028284999999997
C      51.032199999999996     47.315415000000002     46.866484999999997
C      46.435000000000002     47.696775000000002     48.136475000000004
C      48.277799999999999     46.436104999999998     47.615025000000003
C      47.477800000000002     48.465614999999985     47.537845000000004
C      48.692099999999996     47.740745000000004     47.038515000000004
C      48.724400000000003     50.553145000000001     46.960184999999996
C      49.933999999999997     49.788934999999995     46.892344999999992
C      43.779800000000002     50.541664999999995     48.175614999999993
C      44.078099999999999     51.903135000000006     48.253644999999992
C      46.290700000000001     51.954605000000001     47.829364999999996
C      47.567000000000000     52.692064999999985     47.505674999999997
C      48.856600000000000     52.040204999999986     46.813635000000005
C      43.828400000000002     47.642065000000002     48.561835000000002
C      42.705999999999996     48.537604999999999     49.030634999999990
C      42.423000000000002     49.812544999999986     48.266355000000004
C      52.589500000000001     44.128514999999993     47.850194999999999
C      51.165999999999997     50.532415000000000     46.678375000000003
C      48.283600000000000     44.385614999999987     47.615594999999999
H      50.902900000000002     44.174714999999992     48.853134999999995
H      52.082900000000002     43.471814999999992     49.914834999999997
H      54.527799999999999     43.895714999999996     48.502034999999992
H      54.251100000000008     44.379114999999985     46.522784999999999
H      51.737200000000001     50.859605000000002     47.362394999999992
H      52.997799999999998     48.248694999999998     46.044595000000001
H      54.122099999999996     45.874444999999994     46.388795000000002
H      46.380000000000003     45.722095999999993     49.112335000000002
H      43.192500000000003     52.591835000000003     48.479034999999996
H      47.430900000000001     53.492985000000004     46.735415000000003
H      49.108300000000000     52.579584999999994     45.875465000000005
H      49.857300000000002     52.519514999999998     47.319164999999998
H      43.749600000000001     46.652884999999998     49.359634999999997
H      43.621800000000000     47.480124999999987     47.484174999999993
H      41.776299999999999     48.009124999999997     48.970735000000005
H      42.875300000000003     48.772675000000007     50.124534999999995
H      42.185699999999997     49.627544999999998     47.170474999999996
H      41.472200000000001     50.421405000000007     48.663134999999997
H      51.628799999999998     42.507014999999996     48.462535000000003
H      47.584800000000001     44.412514999999985     48.717034999999996
H      51.117699999999999     51.385824999999997     45.972255000000004
H      47.795299999999997     52.865975000000006     48.682234999999991
H      47.572099999999999     44.259114999999994     46.801585000000003
H      48.608800000000002     43.403114999999985     47.553164999999993
N      45.185800000000000     52.513144999999994     48.276844999999994
