6

C      48.236349999999987     48.375149999999991     47.578849999999989
C      47.322449999999996     47.730849999999997     48.316649999999996
H      48.574549999999995     48.041950000000000     46.519850000000005
H      48.785249999999998     49.268450000000001     48.136150000000001
H      47.218449999999997     47.556150000000002     49.480149999999995
H      47.214750000000002     46.731549999999999     47.948450000000008
