5

C      47.776349999999994     48.165849999999992     48.351349999999996
H      47.677250000000001     48.228450000000002     47.233049999999999
H      48.843150000000001     48.170949999999998     48.695249999999994
H      47.156849999999999     48.768749999999997     48.766950000000001
H      47.307749999999999     47.231250000000003     48.679549999999999
