18

C      47.500699999999988     48.809999999999995     47.654849999999996
C      48.465899999999991     47.772899999999993     47.509050000000002
C      48.181799999999996     50.011300000000006     48.074350000000003
C      49.924299999999988     48.028000000000006     47.558450000000001
C      46.091799999999992     48.366699999999994     47.440450000000006
C      47.935800000000000     46.540800000000004     46.955649999999999
C      49.373999999999995     50.063900000000004     48.808550000000004
C      50.266299999999994     48.919799999999995     48.549350000000004
C      45.656699999999994     47.225399999999993     46.788150000000002
C      46.593199999999996     46.188999999999993     46.880749999999999
H      47.334599999999995     50.661900000000003     48.148550000000007
H      50.316599999999994     47.200099999999992     47.207350000000005
H      45.368399999999994     48.939999999999998     47.262350000000005
H      48.862099999999998     46.061700000000002     46.641250000000007
H      49.437999999999995     50.788600000000002     49.616650000000000
H      51.250500000000002     48.909700000000001     48.891449999999999
H      44.749499999999998     46.617099999999994     46.581150000000001
H      46.562499999999993     45.211399999999998     46.383350000000000
