18

C      47.651099999999992     48.512699999999988     47.221649999999997
C      48.054400000000001     47.451599999999999     48.144149999999996
C      48.668800000000005     49.045699999999997     46.374049999999997
C      49.368200000000002     46.689800000000005     47.937849999999997
C      46.287300000000002     48.882000000000005     47.089349999999996
C      47.302900000000001     47.396600000000007     49.269250000000000
C      49.970699999999994     48.461600000000004     46.364449999999991
C      50.313000000000002     47.351900000000001     47.114149999999995
C      45.492899999999999     48.607399999999998     48.111350000000002
C      46.075800000000001     48.040800000000004     49.276150000000001
H      48.504700000000000     49.938000000000002     45.728650000000002
H      49.510100000000001     46.061999999999998     48.888649999999984
H      45.854700000000001     49.506699999999995     46.252049999999997
H      47.637900000000002     46.978400000000008     50.317949999999996
H      50.627099999999999     48.863299999999995     45.682050000000004
H      51.432800000000000     47.488600000000005     47.255149999999986
H      44.567200000000000     49.105999999999995     48.304249999999996
H      45.225200000000001     47.986800000000002     49.982949999999988
