18

C      47.424699999999987     47.982509049999983     48.299949999999981
C      48.785200000000003     48.110209049999995     47.759949999999989
C      46.484899999999996     47.065609049999992     47.871349999999993
C      49.154799999999994     46.983809049999991     46.837949999999992
C      46.933899999999994     48.884709049999998     49.220950000000002
C      49.551900000000003     49.128209049999995     48.145249999999990
C      46.959199999999996     45.985209049999995     47.250450000000001
C      48.298599999999993     45.919209049999992     46.616849999999999
C      47.700199999999995     49.996309049999994     49.539649999999995
C      49.062100000000001     50.090209049999999     49.040250000000000
H      45.430700000000002     47.232409050000001     48.255749999999992
H      50.006500000000003     46.975409049999996     46.052449999999993
H      45.812200000000004     48.789909049999991     49.501049999999992
H      50.569299999999998     48.967709049999996     48.115349999999992
H      46.505300000000005     44.842809050000000     47.114549999999994
H      48.823999999999998     44.944009049999991     46.167949999999990
H      47.421599999999998     51.157190950000000     49.947550000000007
H      49.390500000000003     50.783409049999989     49.701949999999997
