18

C      48.362049999999989     47.645049999999991     47.429849999999995
C      47.457349999999998     48.539850000000001     48.304950000000005
C      49.796149999999997     47.822549999999993     47.200749999999999
C      48.144949999999994     49.675249999999991     48.876049999999992
C      47.512450000000001     46.670349999999999     46.930350000000004
C      46.102049999999998     48.592050000000000     48.329949999999997
C      50.450949999999999     48.779349999999994     48.056950000000001
C      49.487250000000003     49.659250000000000     48.736649999999997
C      46.165250000000000     46.422349999999994     47.049650000000000
C      45.492549999999994     47.434849999999997     47.702750000000002
H      50.322950000000006     46.851450000000000     46.833649999999999
H      47.684749999999994     50.442449999999994     49.627250000000004
H      48.069949999999999     45.842649999999992     46.372749999999996
H      45.504949999999994     49.471249999999998     48.838849999999994
H      51.472149999999999     48.915349999999989     47.846050000000005
H      49.960949999999997     50.551349999999999     49.209150000000001
H      45.419950000000000     45.448650000000001     46.815150000000003
H      44.527850000000001     47.046749999999989     47.415149999999997
