18

C      47.613799999999991     48.860799999999990     48.149749999999997
C      48.008699999999997     47.404100000000000     48.142949999999999
C      46.504199999999997     49.250500000000002     49.032749999999993
C      47.104199999999999     46.417199999999994     48.676450000000003
C      48.055300000000003     49.634299999999996     47.134349999999998
C      49.265699999999995     46.778400000000005     47.851550000000003
C      45.772900000000000     48.295299999999997     49.606650000000002
C      45.979399999999998     46.814799999999991     49.346849999999989
C      49.263900000000007     49.005700000000004     46.604649999999992
C      49.991399999999999     47.934299999999993     47.377150000000000
H      46.092299999999994     50.289800000000000     48.868049999999997
H      47.106800000000000     45.387400000000000     48.283549999999991
H      47.883600000000001     50.612600000000000     46.800950000000000
H      49.387500000000003     45.849900000000005     48.707149999999999
H      44.891700000000000     48.670800000000000     50.264449999999997
H      45.583399999999997     45.793800000000005     49.753649999999993
H      49.787599999999998     49.197099999999992     45.735550000000003
H      51.108300000000000     47.739400000000003     47.424750000000003
