21

C      49.115899999999996     45.068024999999984     47.079999999999998
C      48.045000000000002     48.149424999999994     48.863400000000006
C      47.926499999999997     49.152024999999995     47.751899999999999
C      49.238700000000001     47.036924999999997     48.681600000000010
C      48.394500000000001     48.676624999999987     46.550100000000008
C      47.521099999999997     48.385324999999995     50.060700000000004
C      47.970900000000000     50.495286999999990     48.234600000000007
C      48.908499999999997     46.516424999999998     47.339500000000008
C      48.630299999999998     47.266724999999994     46.220040000000004
C      46.763900000000000     49.660824999999988     50.090400000000010
C      47.037600000000005     50.808174999999999     49.205900000000007
H      49.170099999999998     44.328324999999992     48.035600000000009
H      50.169699999999999     47.564024999999987     48.637300000000003
H      48.668300000000002     49.191324999999992     45.606840000000005
H      47.671900000000001     47.531124999999989     50.909799999999997
H      48.405500000000004     51.574694999999991     47.642500000000005
H      49.393400000000007     46.088724999999997     49.317000000000014
H      48.216600000000007     46.747124999999997     45.090200000000003
H      45.830300000000001     49.550324999999987     50.740400000000001
H      46.259099999999997     51.671675000000008     49.500700000000016
O      48.975200000000001     44.765724999999989     45.967450000000007
