18

C      48.239504999999987     47.685148999999996     48.729549999999996
C      48.107704999999996     47.996748999999994     47.296350000000004
C      46.989374999999995     47.567348999999993     49.453249999999997
C      47.033434999999990     47.624548999999988     46.530649999999994
C      49.395384999999990     48.266348999999991     49.364450000000005
C      49.208114999999992     48.687145000000001     46.724750000000000
C      45.870784999999991     47.040848999999994     48.854150000000004
C      46.009123999999993     47.034548999999998     47.362350000000006
C      50.438744999999983     48.797567000000001     48.515950000000004
C      50.583754999999989     48.541377617000009     47.105549999999994
H      46.697234999999992     47.777548999999993     50.616950000000003
H      47.137894999999993     47.564748999999992     45.383049999999997
H      49.744234999999989     48.195149000000001     50.450950000000006
H      48.888125000000002     49.252951000000010     45.854050000000001
H      44.726015000000004     47.111448999999993     49.210350000000005
H      45.153920999999990     46.747048999999990     46.674850000000006
H      51.273984999999996     49.014688000000007     49.338549999999998
H      51.131844999999998     49.119590000000002     46.619450000000001
