37

C      48.510799999999996     48.416979999999995     46.918809999999993
C      48.152400000000000     49.609580000000001     46.151409999999984
C      43.812600000000003     48.693080000000002     47.528909999999996
C      47.441400000000002     47.600480000000005     47.459909999999994
C      46.854200000000006     50.081080000000007     46.162009999999995
C      44.844600000000000     47.810580000000002     48.109109999999987
C      44.521800000000006     49.752780000000008     46.974909999999994
C      46.286600000000007     48.387080000000005     47.690809999999985
C      45.907100000000000     49.496079999999999     46.926409999999990
C      49.820999999999998     48.221780000000003     47.265609999999995
C      50.864100000000008     48.717779999999998     46.403709999999990
C      50.756500000000003     50.075680000000006     45.800409999999985
C      49.367300000000000     50.432980000000008     45.669309999999996
C      51.285600000000002     47.065090000000005     48.644227999999998
C      52.261099999999999     47.083710000000004     47.633009999999985
C      52.122800000000005     48.030080000000005     46.580409999999986
C      50.911100000000005     45.295700000000004     50.293989999999994
C      51.817100000000003     46.220440000000004     49.696029999999993
C      51.925400000000010     50.633879999999998     45.106509999999986
C      44.183300000000003     46.575180000000003     48.477606000000009
H      53.256399999999999     45.213130000000007     47.981409999999997
H      49.899799999999999     46.463870000000007     51.252290000000002
H      42.743600000000001     48.209580000000003     47.635109999999997
H      47.545900000000003     46.783760000000008     48.280910000000006
H      46.456200000000003     51.041480000000000     45.694709999999986
H      44.274300000000004     50.665080000000003     46.539409999999990
H      48.887600000000006     51.562080000000002     45.463109999999986
H      52.994100000000003     48.260780000000004     45.679809999999989
H      51.114199999999997     44.214220000000005     50.541399999999996
H      53.011400000000002     46.127510000000008     49.970949999999988
H      51.594499999999996     51.785779999999995     45.135609999999986
H      43.253900000000002     46.232390000000002     48.083909999999989
H      43.828200000000010     46.293830000000007     49.481949999999998
N      50.002400000000009     47.486060000000002     48.305801000000002
O      49.681900000000013     45.480860000000007     50.822370000000006
O      53.076400000000007     50.552480000000010     44.747709999999998
O      53.143900000000002     46.015830000000001     47.378909999999991
