18

C      47.393699999999981     47.769349999999989     47.806599999999989
C      48.385499999999993     48.763849999999998     47.951400000000007
C      46.612499999999997     47.561149999999991     46.592799999999997
C      49.112799999999993     49.301250000000003     46.881399999999999
C      47.284999999999997     46.823850000000000     48.777100000000004
C      48.906199999999998     48.894050000000000     49.297700000000006
C      47.002799999999993     48.504849999999998     45.533600000000007
C      48.381200000000007     49.034749999999995     45.686499999999995
C      48.098799999999997     46.662849999999999     49.980199999999996
C      48.675599999999989     47.897149999999989     50.314999999999998
H      45.956999999999994     46.708949999999994     46.592200000000005
H      50.043000000000006     49.758850000000002     46.890100000000004
H      46.363199999999992     46.392649999999996     48.336600000000004
H      49.621299999999991     49.721550000000001     49.651100000000000
H      46.692799999999991     48.436950000000003     44.575599999999994
H      49.185199999999995     49.272950000000002     44.940300000000008
H      47.658000000000001     46.241149999999998     50.844300000000004
H      49.037400000000005     48.152250000000002     51.424400000000006
