18

C      47.907799999999995     47.572449999999989     48.379399999999990
C      47.441800000000001     48.817149999999991     48.984099999999991
C      48.445500000000003     46.307549999999999     48.825899999999997
C      47.650500000000001     48.670749999999991     50.402099999999997
C      47.692699999999995     47.347850000000001     46.890300000000003
C      46.654100000000000     49.544850000000004     48.054799999999993
C      48.956199999999995     46.580649999999999     50.083499999999994
C      48.799799999999998     47.915249999999993     50.664499999999997
C      47.236100000000000     48.378349999999998     46.084600000000002
C      46.914600000000000     49.687249999999999     46.634399999999992
H      48.444099999999999     45.488650000000000     48.232899999999994
H      47.414200000000001     49.564549999999990     51.105200000000004
H      48.003599999999999     46.316249999999997     46.553400000000003
H      46.245799999999996     50.421549999999996     48.204000000000001
H      49.380299999999998     45.557949999999998     50.443700000000000
H      49.754200000000004     48.257449999999999     50.206200000000003
H      47.200600000000001     48.283250000000002     44.894799999999996
H      46.795499999999997     50.511350000000000     45.927599999999991
