20

C      46.126999999999995     45.475034999999991     49.881699999999995
C      47.859100000000005     47.900789999999986     46.988884999999996
C      48.008299999999998     48.167049999999989     48.350685000000013
C      47.271200000000000     46.586079999999995     46.765585000000002
C      47.503400000000006     47.491679999999988     49.514832999999996
C      48.768800000000006     48.423620000000000     46.055885000000004
C      48.604800000000004     49.534789999999987     48.459585000000004
C      46.932800000000000     45.682858999999993     47.757485000000017
C      46.898200000000003     46.263449999999992     49.086285000000004
C      49.604800000000004     49.498129999999989     46.360984999999999
C      49.286200000000001     50.313239999999993     47.516584999999992
H      45.891300000000001     45.595394999999982     51.048414999999991
H      45.349499999999999     44.812124889999993     49.451685999999995
H      46.994599999999998     46.470379999999992     45.722185000000010
H      47.612600000000008     47.770559999999989     50.523484999999994
H      48.793399999999998     48.262479999999996     44.951585000000009
H      48.074300000000001     50.122419999999991     49.344893999999996
H      46.918800000000005     44.512780000000006     47.353584999999995
H      50.650500000000001     49.924229999999994     45.891485000000003
H      49.530400000000007     51.487219999999994     47.684184999999999
