18

C      47.826849999999993     48.364699999999999     48.638849999999998
C      48.917750000000005     47.533699999999996     48.182150000000007
C      47.411149999999999     49.505799999999994     47.830450000000006
C      49.383450000000003     47.615099999999998     46.794050000000006
C      46.785249999999998     47.985799999999998     49.502350000000007
C      49.279150000000008     46.346199999999996     48.934050000000013
C      47.998150000000003     49.760599999999997     46.639450000000004
C      49.104050000000001     48.812399999999997     46.155650000000009
C      46.959949999999999     46.637400000000000     49.876650000000012
C      48.367049999999999     46.073400000000007     49.991950000000003
H      46.723050000000001     50.165399999999991     48.309850000000004
H      50.058950000000003     46.722300000000004     46.682050000000004
H      45.927550000000004     48.356999999999999     49.712250000000012
H      50.072449999999996     45.604699999999994     48.424350000000004
H      47.820650000000001     50.796099999999996     46.288150000000002
H      49.774250000000002     48.563800000000001     45.211050000000000
H      46.367350000000002     46.143400000000000     50.788950000000000
H      48.901450000000004     45.203900000000004     50.428450000000005
