18

C      48.595019999999991     48.571551599999992     48.153849999999991
C      47.717579999999998     47.315351599999993     47.827749999999995
C      49.855169999999994     48.525751600000000     48.863050000000001
C      48.026060000000001     45.922751599999991     48.090950000000007
C      48.339689999999997     49.920551600000003     47.884550000000004
C      46.654690000000002     47.713951599999994     47.062550000000002
C      49.986240000000002     47.061551599999994     49.072850000000003
C      49.232820000000004     45.893451599999999     48.826250000000002
C      47.036570000000005     50.094351600000003     47.286450000000002
C      46.170970000000004     49.013051600000004     46.761449999999996
H      50.263390000000008     49.319951600000003     49.542850000000001
H      47.208190000000002     45.219851599999991     48.055250000000001
H      48.747000000000000     50.635451600000003     48.343350000000001
H      45.932320000000004     46.926851599999999     46.614750000000001
H      50.899450000000002     47.076251599999999     49.650250000000000
H      49.769900000000000     44.969151599999996     48.787250000000000
H      46.519500000000001     51.030848400000004     47.379450000000006
H      45.100549999999998     49.184251600000003     46.349750000000000
