18

C      47.378764999999994     48.456699999999991     48.116399999999999
C      48.639314999999996     47.847099999999998     48.000799999999998
C      47.109524999999998     49.340800000000002     47.023700000000005
C      49.642015000000001     48.158500000000004     46.913799999999995
C      46.462305000000001     47.921400000000006     49.016700000000000
C      48.803735000000003     46.701700000000002     48.844600000000000
C      47.918025000000000     49.539600000000007     45.969600000000000
C      49.383575000000000     49.201200000000000     46.089799999999997
C      46.769945000000000     47.037199999999999     50.140000000000001
C      48.150185000000000     46.450900000000004     50.082400000000007
H      45.994684999999997     49.377399999999994     47.186499999999995
H      50.558785000000000     47.521500000000003     46.965999999999994
H      45.441215000000000     48.521900000000002     48.835999999999999
H      49.672894999999997     46.152100000000004     48.201499999999996
H      47.489935000000003     49.889300000000006     45.073099999999997
H      50.012735000000006     49.256600000000006     45.094099999999997
H      46.294375000000002     46.525599999999997     50.926900000000003
H      48.610315000000000     46.110699999999994     50.893299999999996
