18

C      48.357149999999997     47.605349999999987     47.892699999999991
C      47.265850000000000     48.630050000000011     48.137200000000000
C      47.803550000000001     46.322149999999993     47.684300000000000
C      46.041650000000004     48.188250000000011     48.661899999999996
C      49.630549999999999     47.963450000000009     47.298600000000000
C      47.804450000000003     49.858149999999995     48.155299999999997
C      46.734650000000002     45.835949999999997     48.530899999999995
C      45.922150000000002     46.906149999999997     48.971599999999988
C      50.100049999999996     49.306550000000001     47.243599999999994
C      49.159649999999999     50.206750000000000     47.724699999999991
H      48.426050000000004     45.534849999999992     47.386299999999999
H      45.122049999999994     48.792349999999999     48.932399999999994
H      50.223649999999992     47.260449999999992     46.827300000000001
H      47.124349999999993     50.925049999999999     48.525799999999997
H      46.642849999999996     44.856849999999994     48.941299999999998
H      44.732450000000000     46.714050000000000     49.172699999999999
H      51.267550000000000     49.445550000000011     46.969299999999997
H      49.562849999999997     51.143150000000006     47.696499999999993
