13

C      47.157499999999992     47.330799999999989     47.323499999999996
C      48.307400000000001     47.091414260000001     48.133799999999994
C      49.233599999999996     48.064436999999998     48.161900000000003
C      49.037499999999994     49.280040000000000     47.535499999999985
C      47.683999999999997     49.701329999999999     47.305899999999994
C      46.731899999999996     48.613500000000002     47.212199999999996
H      47.452799999999996     45.299530000000004     49.496200000000002
H      46.416999999999994     46.564530000000005     47.430799999999991
H      50.116900000000001     48.197679999999991     48.857999999999990
H      49.724599999999995     50.176720000000003     47.459299999999999
H      47.151100000000000     50.700469999999996     47.519499999999994
H      45.883099999999999     49.054980000000000     46.503799999999998
S      48.767899999999997     45.587630000000019     49.378699999999995
