23

C      44.615849999999995     47.276249999999990     48.431449999999998
C      49.410149999999994     48.002850000000002     48.314350000000005
C      48.437550000000009     47.100850000000001     48.271450000000009
C      50.726749999999996     47.914050000000003     47.642550000000007
C      48.927049999999987     45.713450000000002     48.068650000000005
C      49.315249999999999     49.397449999999999     48.840550000000000
C      46.914050000000003     47.236950000000000     48.497250000000001
C      51.142549999999993     46.762050000000002     46.854850000000006
C      50.163849999999989     45.779550000000000     47.283549999999998
C      48.422549999999994     50.056350000000002     48.294350000000001
C      46.004850000000005     46.484250000000003     48.150550000000003
H      48.143050000000002     49.812550000000009     47.360450000000007
H      46.499049999999997     48.187750000000001     48.954249999999995
H      43.873550000000002     46.450449999999996     48.513650000000005
H      44.274349999999998     48.113350000000004     47.924550000000004
H      44.593750000000000     47.616350000000004     49.375549999999997
H      51.732349999999997     48.309649999999998     47.900449999999999
H      48.571250000000013     44.956949999999999     48.754350000000002
H      50.159149999999997     49.801549999999999     49.325650000000003
H      52.126449999999998     46.423250000000003     46.624450000000003
H      50.633750000000013     44.822150000000001     47.071249999999999
H      47.925950000000000     51.177849999999999     48.652149999999999
H      46.183350000000004     45.863349999999997     47.313549999999999
