67

C      49.926399999999987     47.725299999999990     47.362439999999978
C      49.409999999999997     46.793599999999998     48.266919999999985
C      45.308599999999998     49.563000000000002     46.369019999999985
C      44.820599999999999     48.405500000000004     47.046159999999986
C      48.917100000000005     48.585800000000006     46.665719999999986
C      47.825400000000002     46.390900000000002     48.172149999999995
C      46.729799999999997     49.565799999999996     46.422139999999985
C      45.711900000000000     47.643000000000001     47.900869999999983
C      47.493700000000004     48.438000000000002     46.602059999999987
C      46.875699999999995     47.274699999999996     47.405019999999986
C      51.364699999999999     47.726300000000009     47.175319999999985
C      52.156700000000001     46.683700000000002     47.865869999999980
C      51.636800000000008     45.727400000000003     48.693749999999987
C      50.176100000000005     45.746899999999997     48.677179999999986
C      44.501199999999997     50.497600000000006     45.784439999999989
C      43.204899999999995     50.007200000000012     45.309069999999984
C      42.537400000000005     49.070300000000003     46.186019999999985
C      43.370999999999995     48.314000000000007     47.070789999999988
C      52.136300000000006     48.788200000000003     46.570859999999989
C      53.421399999999991     48.584100000000007     46.630179999999989
C      54.179900000000004     47.447699999999998     47.035949999999985
C      53.669800000000009     46.279799999999994     47.539039999999986
C      51.137100000000004     49.977500000000006     46.360889999999984
C      49.673900000000003     49.836100000000002     46.359259999999985
C      49.025899999999993     50.881600000000006     45.593629999999983
C      47.529300000000006     50.939300000000003     46.387899999999988
C      47.028700000000001     46.873599999999996     49.579419999999985
C      47.288200000000003     46.019300000000001     50.604739999999985
C      49.661900000000003     44.703800000000001     49.787639999999989
C      45.441800000000001     46.949500000000000     49.251409999999986
C      41.806799999999996     47.882599999999996     48.767839999999985
C      42.354900000000001     47.529899999999998     47.747119999999988
C      49.413700000000006     51.308300000000003     44.415079999999989
C      50.750799999999998     50.723299999999995     44.160135999999987
C      47.393699999999995     45.393600000000006     51.779869999999995
C      48.078900000000004     51.105200000000011     47.828479999999985
C      42.718000000000004     50.195900000000009     44.163877999999990
H      50.333600000000004     43.943799999999996     50.003039999999977
H      47.888700000000000     51.898800000000008     43.454099999999976
H      55.098600000000005     47.093999999999994     46.728839999999984
H      52.350600000000000     45.105300000000000     49.109349999999985
H      45.376300000000001     50.909400000000005     45.235239999999983
H      41.583900000000000     48.776300000000006     46.003019999999985
H      54.041799999999995     49.453400000000002     46.208869999999983
H      54.195700000000002     45.485200000000006     48.262979999999992
H      52.057900000000004     50.711299999999994     46.093959999999988
H      47.254700000000000     51.534400000000005     48.465319999999984
H      46.969200000000001     51.817599999999999     46.145949999999985
H      47.190899999999999     48.067499999999995     49.886389999999984
H      47.871200000000002     45.248800000000003     48.239669999999983
H      49.393299999999996     45.221599999999995     50.707889999999985
H      49.234700000000004     43.787000000000006     49.308549999999990
H      44.737600000000000     47.406999999999996     50.053419999999988
H      42.390699999999995     47.839500000000001     49.639909999999979
H      40.901399999999995     48.461200000000005     48.720339999999986
H      42.602300000000000     46.404799999999994     47.521439999999991
H      44.998900000000006     45.853700000000003     49.145949999999978
H      51.323800000000006     51.047899999999998     43.256000000000007
H      50.630899999999997     49.598399999999998     44.484200999999985
H      51.685400000000001     51.380600000000001     44.671185999999985
H      47.139099999999999     44.416499999999999     51.913599999999981
H      46.936700000000002     45.832899999999995     52.743999999999993
H      48.311599999999999     50.001099999999994     47.946069999999985
H      48.922799999999995     51.731499999999997     47.747799999999984
H      42.992999999999995     51.061899999999994     43.396999999999998
H      41.851100000000002     49.594700000000003     43.730799999999995
O      48.712599999999995     52.212999999999994     43.693299999999986
