18

C      48.307949999999991     47.255849999999995     48.512599999999992
C      47.451949999999997     48.433549999999997     47.994999999999997
C      49.412450000000000     47.761650000000003     49.318999999999996
C      47.709849999999996     49.799350000000004     48.702400000000004
C      48.332549999999991     46.067750000000004     47.786400000000008
C      46.476750000000003     48.144849999999991     47.080700000000000
C      49.587149999999987     49.094750000000005     49.686100000000003
C      48.811450000000001     50.213549999999998     49.469600000000007
C      47.407249999999998     45.992449999999991     46.743100000000005
C      46.444049999999997     47.023349999999994     46.298300000000005
H      50.314049999999988     47.150449999999992     49.558600000000006
H      47.190849999999998     50.552449999999993     48.291300000000000
H      48.470549999999996     44.963250000000002     48.142599999999995
H      45.669649999999997     49.052250000000001     47.258199999999995
H      50.330350000000003     49.057949999999991     50.839800000000004
H      49.178649999999998     51.036749999999998     49.999000000000002
H      46.868749999999999     45.064449999999994     46.402499999999996
H      46.037249999999993     46.921849999999992     45.160199999999996
