18

C      48.398812999999990     47.230799999999988     48.088799999999992
C      47.545912999999999     48.168310000000005     48.868100000000005
C      49.773112999999995     47.050690000000003     48.412900000000000
C      48.336713000000003     49.028589999999994     49.673700000000004
C      47.668513000000004     46.693250000000006     46.766200000000005
C      46.065812999999991     48.034019999999998     48.851400000000005
C      50.596712999999994     48.096320000000006     48.916400000000003
C      49.710312999999999     49.080079999999995     49.358600000000003
C      46.374013000000005     46.922480000000007     46.708400000000005
C      45.514713000000000     47.304969999999997     47.850600000000007
H      50.321512999999996     46.026859999999999     48.247499999999995
H      47.729912999999996     49.872520000000009     50.288300000000000
H      48.144312999999997     46.011579999999995     46.001899999999999
H      45.645313000000002     48.825630000000004     49.681199999999997
H      51.664586999999997     48.354320000000001     48.521700000000003
H      50.343412999999998     49.988420000000005     49.354099999999995
H      45.750812999999994     46.556139999999999     45.711700000000000
H      44.335413000000003     47.355230000000006     47.831399999999995
