18

C      48.718464999999995     48.529639499999995     48.313999999999993
C      47.346135000000004     47.862139499999998     47.956099999999999
C      49.099345000000007     48.538539499999999     49.565900000000006
C      46.699845000000003     46.795339499999997     48.681199999999997
C      49.375575000000005     49.272539500000008     47.302799999999998
C      46.721645000000002     47.975939499999996     46.703600000000002
C      48.217545000000001     47.894639499999997     50.433399999999999
C      47.059995000000001     47.030039500000001     49.994399999999999
C      48.864065000000004     48.980339499999999     45.968199999999996
C      47.644485000000003     48.354239500000006     45.610299999999995
H      50.241494999999993     48.873339500000000     49.784500000000001
H      45.974345000000000     46.150639499999997     48.096399999999996
H      50.263394999999996     49.849360500000003     47.574500000000000
H      45.736605000000004     47.242139500000008     46.699900000000000
H      48.069454999999998     48.283739499999996     51.394900000000000
H      46.388595000000002     46.812739500000006     50.957699999999996
H      49.559735000000011     49.354720000000007     45.193500000000000
H      47.464044999999999     47.807639500000008     44.605100000000000
