20

C      48.468749999999986     46.121699999999990     50.018850000000000
C      47.499350000000007     47.936000000000007     47.072150000000008
C      47.602950000000007     48.010500000000008     48.495550000000009
C      47.769350000000003     49.171800000000005     46.417650000000009
C      47.349549999999994     49.174800000000005     49.236249999999998
C      48.005449999999996     46.516000000000005     48.661250000000010
C      47.617450000000005     50.319299999999998     47.231450000000009
C      47.344549999999998     50.389499999999998     48.618350000000007
C      47.405349999999999     46.532300000000006     46.401650000000004
C      48.193250000000006     45.738200000000006     47.700550000000007
H      47.850549999999998     45.349299999999999     50.591749999999990
H      48.152349999999998     47.209599999999995     50.223349999999996
H      49.436850000000007     46.347000000000008     50.067450000000008
H      46.563149999999993     46.073999999999998     46.032049999999998
H      47.990750000000006     49.299000000000007     45.428350000000009
H      47.059049999999999     49.243600000000001     50.263550000000009
H      47.819550000000007     51.338700000000003     46.979650000000007
H      47.052250000000001     51.295400000000001     48.954450000000008
H      48.626550000000009     44.661299999999997     47.511949999999999
H      47.866849999999999     46.625900000000001     45.408250000000010
