36

C      51.118049999999997     47.570749999999990     48.293949999999981
C      50.693549999999995     48.144750000000002     47.030249999999988
C      46.337150000000001     46.847149999999999     48.725549999999991
C      45.998250000000006     47.510750000000002     47.404049999999991
C      49.982450000000007     46.787750000000003     48.836149999999996
C      49.569350000000007     47.565049999999999     46.219149999999992
C      47.518049999999995     46.196849999999998     49.260849999999998
C      47.274449999999995     47.815049999999999     46.663549999999994
C      48.565950000000008     46.546149999999997     48.362249999999996
C      48.451749999999997     47.154449999999997     47.114649999999990
C      52.053149999999995     48.527450000000002     48.987649999999995
C      52.801049999999996     49.471750000000000     48.268549999999998
C      52.514350000000000     49.800749999999994     46.985849999999992
C      51.619549999999997     49.129149999999996     46.253549999999997
C      45.314050000000002     47.230649999999997     49.658949999999997
C      44.039949999999997     47.429450000000003     49.200249999999990
C      43.695950000000003     47.488450000000000     47.824649999999998
C      44.757449999999999     47.854749999999996     46.954149999999991
C      50.239049999999999     46.383150000000001     50.208949999999994
C      52.138050000000000     48.412350000000004     50.229749999999989
H      43.804150000000000     49.229849999999999     45.666449999999990
H      49.709849999999996     46.916449999999998     45.543549999999989
H      51.442650000000008     47.716250000000002     50.802450000000000
H      49.312750000000001     48.403549999999996     45.441749999999992
H      47.591249999999995     45.719849999999994     50.224349999999994
H      53.474950000000000     50.280150000000006     48.773750000000000
H      51.659650000000006     49.307950000000005     45.197550000000000
H      45.420549999999999     47.058149999999998     50.720949999999995
H      43.169149999999995     47.476950000000002     49.921450000000000
H      42.525050000000000     47.125050000000002     47.494549999999997
H      49.251449999999998     46.750249999999994     50.766649999999991
H      51.226649999999999     45.893050000000002     50.446949999999994
H      53.149350000000005     48.378349999999998     50.467149999999997
H      46.497250000000001     49.233149999999995     45.473749999999988
O      47.209750000000007     48.556250000000006     45.535849999999989
O      44.417949999999998     48.504050000000007     45.694849999999995
