44

C      46.992899999999992     47.490899999999996     45.018499999999996
C      47.715499999999999     46.500000000000007     45.637799999999999
C      51.185299999999991     49.891900000000000     52.869199999999992
C      51.338099999999990     48.473100000000009     52.503000000000000
C      47.102100000000000     48.796799999999998     45.713300000000004
C      48.276999999999994     46.518900000000002     46.969999999999999
C      50.774200000000000     50.978900000000003     51.998499999999993
C      50.824700000000000     47.990299999999998     51.205200000000005
C      48.229099999999995     50.185499999999998     47.450100000000006
C      49.756700000000002     51.252200000000009     49.428600000000003
C      48.947299999999991     47.736700000000006     49.042800000000000
C      47.930099999999989     48.922600000000010     47.030500000000004
C      48.339300000000001     47.687200000000011     47.653499999999994
C      50.366599999999998     50.629100000000001     50.620800000000003
C      48.932699999999990     50.317300000000010     48.764600000000002
C      50.330599999999997     49.275500000000001     50.544100000000000
C      49.295899999999996     49.020000000000003     49.426999999999992
C      50.372899999999994     46.737299999999998     50.780100000000004
C      49.716799999999999     46.615400000000001     49.577600000000004
C      49.531199999999991     45.510899999999999     48.656199999999998
C      49.105899999999998     45.262500000000003     47.357500000000002
C      46.423399999999994     47.511599999999994     43.659400000000005
C      46.759399999999992     46.360199999999999     42.942800000000005
C      47.399299999999990     45.245800000000003     43.625699999999995
C      47.874699999999997     45.257600000000004     44.994900000000001
C      48.323699999999995     44.033800000000006     45.559600000000003
C      49.141199999999991     44.064500000000002     46.618899999999996
C      45.295600000000000     48.418700000000001     43.132800000000003
C      50.268599999999999     52.539000000000009     48.893299999999996
H      51.158299999999990     50.240400000000001     53.849199999999996
H      51.775100000000002     47.735000000000007     53.139799999999994
H      50.951000000000001     52.083100000000009     52.102999999999994
H      47.812199999999997     51.129100000000001     47.055700000000002
H      51.036200000000001     45.929000000000002     50.906199999999998
H      49.726199999999999     44.588000000000001     48.993799999999993
H      46.064900000000002     46.124400000000001     42.150800000000004
H      46.937199999999997     44.332900000000002     42.864599999999996
H      48.254199999999990     42.980100000000000     45.063299999999998
H      49.774499999999996     43.166900000000005     46.912099999999995
H      45.474299999999992     49.198300000000003     42.176000000000002
H      49.854899999999994     52.778900000000000     47.756799999999998
O      44.224899999999998     48.430100000000003     43.668800000000005
O      51.332900000000002     53.019900000000000     49.271299999999997
O      47.112899999999989     49.727200000000003     44.917100000000005
