18

C      48.302199999999992     48.588799999999992     47.528599999999990
C      48.524200000000008     47.699799999999996     48.671700000000001
C      48.309799999999996     48.146400000000000     46.154600000000002
C      49.433099999999996     46.638099999999994     48.312100000000001
C      47.477999999999994     49.781300000000002     47.589500000000001
C      47.781900000000000     48.022300000000001     49.863799999999998
C      49.263299999999994     47.130399999999995     45.818899999999999
C      49.554100000000005     46.316000000000003     46.986100000000008
C      46.646899999999995     49.984500000000011     48.739100000000008
C      46.842599999999997     49.079599999999999     49.841499999999996
H      48.078299999999999     48.668499999999995     45.192899999999995
H      49.331800000000001     45.894800000000004     49.033799999999999
H      47.737399999999994     50.689300000000003     47.009000000000000
H      48.088699999999996     47.639799999999994     50.770499999999998
H      50.245000000000005     47.353999999999999     45.145899999999997
H      49.792600000000000     45.310699999999997     46.736300000000000
H      45.754999999999995     50.421899999999994     48.860100000000003
H      46.104299999999995     48.833399999999997     50.854100000000003
