18

C      48.549099999999996     48.165849999999992     47.738950000000003
C      47.109400000000001     48.228949999999990     48.056150000000009
C      49.198399999999999     46.983749999999993     47.316750000000006
C      46.471800000000009     46.881749999999997     47.944850000000010
C      49.432900000000011     49.244449999999993     47.342050000000008
C      46.728000000000002     49.368649999999995     48.657050000000005
C      48.621500000000005     45.718349999999994     47.578049999999998
C      47.167099999999998     45.676549999999999     47.843650000000004
C      48.923400000000008     50.493049999999990     47.668450000000000
C      47.667300000000004     50.489349999999995     48.387050000000009
H      50.513900000000000     47.127849999999995     47.247450000000008
H      45.486100000000000     46.800849999999997     48.183450000000001
H      50.317200000000007     48.957249999999995     46.817850000000000
H      45.758299999999998     49.539549999999998     49.182150000000000
H      49.187900000000006     44.726749999999996     47.255250000000011
H      46.689600000000006     44.549849999999999     47.947250000000004
H      49.462100000000000     51.450150000000001     47.487550000000006
H      47.084499999999998     51.189249999999994     49.037750000000010
