18

C      48.067749999999990     47.779849999999996     48.653349999999989
C      48.391150000000010     48.114649999999997     47.287949999999988
C      49.263350000000003     47.633150000000001     49.545049999999996
C      49.676850000000002     47.650949999999995     46.735250000000001
C      46.662750000000003     47.963350000000005     49.207850000000001
C      47.378349999999998     48.696949999999987     46.508049999999990
C      49.966750000000005     46.633849999999995     48.956449999999997
C      50.297449999999998     46.704750000000004     47.573249999999994
C      46.150250000000000     49.110449999999986     48.657449999999990
C      46.435249999999996     49.336449999999999     47.275849999999998
H      49.411349999999999     47.349850000000004     50.614049999999999
H      49.996849999999995     47.684849999999997     45.621549999999992
H      46.381749999999997     47.831950000000006     50.312149999999995
H      47.431449999999998     48.757049999999992     45.385950000000001
H      50.727750000000000     45.942849999999993     49.331649999999989
H      50.613950000000003     45.740849999999995     47.224849999999996
H      45.272250000000000     49.436049999999994     49.085349999999998
H      45.679450000000003     50.259150000000005     46.355649999999990
