18

C      47.372049999999994     48.434149999999988     48.578199999999995
C      48.226550000000003     48.421650000000000     47.331000000000003
C      46.004450000000006     48.029550000000000     48.474299999999999
C      47.453850000000003     48.332949999999997     46.133200000000002
C      48.110849999999999     48.122249999999994     49.721699999999998
C      49.630350000000007     48.754249999999999     47.528999999999996
C      45.467750000000002     47.672349999999994     47.297799999999995
C      46.082549999999998     48.132149999999996     46.050299999999993
C      49.525750000000002     48.046750000000003     49.906499999999994
C      50.320350000000005     48.275050000000007     48.772999999999996
H      45.408450000000002     47.935649999999995     49.545800000000000
H      47.903550000000010     48.832949999999997     45.159700000000001
H      47.572749999999999     47.630250000000004     50.518400000000000
H      50.598650000000006     48.553849999999997     46.733899999999991
H      44.512349999999998     47.167050000000003     46.972799999999992
H      45.505850000000002     48.109250000000003     44.994100000000003
H      49.992249999999999     48.115350000000007     51.005899999999997
H      51.487650000000002     48.246049999999997     48.926999999999992
