5

C      48.183349999999990     47.956199999999995     47.869749999999989
H      47.952449999999999     48.822499999999998     47.264150000000001
H      48.663750000000007     48.381899999999995     48.735849999999999
H      48.756749999999997     47.177500000000002     47.283150000000006
H      47.243250000000003     47.547499999999992     48.303150000000002
