35

C      48.816399999999987     49.611550000000001     49.158099999999990
C      49.614400000000003     48.477450000000005     48.775499999999994
C      45.296199999999999     46.926349999999999     47.346999999999994
C      46.209599999999995     45.739550000000008     47.561799999999991
C      47.399799999999999     49.617450000000005     49.251300000000001
C      48.928000000000011     47.155349999999999     48.397199999999998
C      45.472499999999997     48.198149999999998     48.053299999999993
C      47.306899999999999     45.763649999999998     48.339799999999997
C      46.727400000000003     48.311450000000008     48.816099999999992
C      47.566500000000005     47.165850000000006     48.876700000000000
C      49.481300000000005     50.698549999999997     49.863199999999992
C      50.893799999999999     50.677549999999997     49.837599999999995
C      51.594999999999999     49.792749999999998     49.110399999999998
C      50.996099999999998     48.564549999999997     48.727199999999996
C      44.220500000000001     46.957149999999999     46.377899999999997
C      45.092900000000000     44.932749999999999     45.631100000000004
C      45.921000000000006     44.652349999999998     46.615299999999991
C      46.825299999999999     50.747550000000004     50.036199999999994
C      47.559399999999997     51.725750000000005     50.619599999999991
C      49.746600000000001     46.160449999999997     47.985900000000001
H      44.791399999999996     49.016050000000007     47.501400000000004
H      51.544499999999999     51.375250000000008     50.456699999999984
H      52.573800000000006     49.669150000000002     48.912899999999993
H      51.744400000000013     47.821349999999995     48.333299999999994
H      43.426199999999994     47.611750000000001     46.603700000000003
H      45.099800000000002     43.973650000000006     44.981099999999998
H      46.405600000000007     43.621250000000003     46.723100000000002
H      45.740600000000001     50.463149999999999     50.344999999999985
H      46.797100000000000     52.378749999999997     51.018900000000002
H      49.340000000000003     45.115949999999998     47.716600000000000
H      47.073800000000006     43.826250000000002     48.867999999999995
H      50.921000000000006     46.489450000000005     48.182699999999997
N      44.234300000000005     46.033550000000005     45.497199999999992
N      48.872200000000007     51.745750000000001     50.405399999999986
O      47.893400000000000     44.563350000000000     48.768999999999991
