18

C      49.008099999999985     48.498999999999995     48.739049999999992
C      48.330799999999996     48.533700000000003     47.530450000000002
C      48.370799999999988     49.182700000000004     49.793649999999985
C      46.915300000000002     48.604300000000002     47.593249999999998
C      50.007700000000000     47.395100000000006     49.161450000000002
C      48.949599999999990     48.038900000000005     46.252349999999993
C      47.078800000000001     49.750400000000006     49.679749999999999
C      46.269099999999995     49.153900000000014     48.685149999999993
C      50.445200000000000     46.732700000000001     47.986149999999995
C      50.091499999999996     47.247600000000006     46.622749999999996
H      48.916199999999989     49.395100000000006     50.652349999999998
H      46.328699999999998     48.000700000000002     46.841750000000005
H      50.062100000000001     46.991000000000007     50.195649999999986
H      48.651499999999999     48.347400000000000     45.347650000000002
H      46.635099999999994     50.378200000000000     50.369049999999987
H      45.201899999999995     49.410500000000006     48.660449999999997
H      50.798100000000005     45.621800000000000     48.091449999999995
H      50.653399999999991     46.710300000000004     46.000649999999993
