46

C      50.755849999999995     47.034239999999990     47.807949999999991
C      49.949150000000003     48.209800000000001     47.607250000000001
C      43.136250000000004     43.896489999999993     46.810449999999996
C      50.340949999999992     45.748739999999998     47.357250000000001
C      48.736050000000006     48.107189999999996     46.757249999999999
C      44.548050000000003     43.655789999999996     47.030149999999999
C      44.455950000000001     47.136239999999994     46.355849999999997
C      45.771349999999998     47.604979999999998     46.660049999999998
C      47.989350000000002     44.532399999999996     47.173349999999999
C      44.078450000000004     45.750709999999998     46.741149999999998
C      49.030850000000001     45.556589999999993     46.811150000000005
C      45.246049999999997     44.944809999999997     46.929749999999999
C      48.181049999999999     46.732289999999992     46.666550000000001
C      46.823149999999998     46.720579999999991     46.775150000000004
C      46.678449999999998     45.220849999999992     46.914549999999998
C      47.867249999999999     49.239089999999990     46.893949999999997
C      46.415649999999999     49.062129999999996     46.653449999999999
C      51.869749999999996     47.180029999999988     48.750650000000000
C      52.187550000000002     48.470839999999995     49.478749999999998
C      51.505549999999999     49.399109999999993     49.122949999999996
C      50.251450000000006     49.435059999999993     48.258249999999997
C      49.409549999999996     50.636669999999995     48.179349999999992
C      48.021950000000004     50.421279999999996     47.613149999999997
C      51.464150000000004     44.763159999999992     47.841549999999991
C      52.091449999999995     45.801549999999992     48.754150000000003
C      45.456750000000000     49.948469999999993     46.259549999999997
C      44.865250000000003     51.058329999999998     46.216249999999995
C      44.084750000000000     52.158289999999994     46.409550000000003
C      52.161850000000001     50.655239999999992     48.706250000000004
H      42.434849999999997     43.047239999999995     46.964750000000002
H      45.088250000000002     42.820909999999998     46.618450000000003
H      43.979450000000000     47.976050000000001     45.643949999999997
H      48.354349999999997     43.790019999999991     47.722149999999999
H      49.652649999999994     51.393189999999990     48.721950000000000
H      52.054449999999989     44.164219999999993     46.910350000000001
H      50.888149999999996     43.853559999999995     48.210749999999997
H      52.945649999999986     45.123339999999992     49.443950000000008
H      47.160150000000002     50.929979999999986     48.010650000000005
H      53.565150000000003     49.562479999999994     50.356050000000003
H      42.996049999999997     52.031989999999993     46.630949999999999
H      44.541950000000000     53.179090000000002     46.056850000000004
H      51.639549999999986     51.560589999999991     49.310250000000003
H      52.064149999999998     50.373029999999993     47.446249999999999
H      53.129949999999994     50.780769999999997     48.963349999999998
N      42.974750000000000     45.148889999999994     46.635449999999999
O      53.362350000000006     48.712239999999994     50.269449999999999
