5

C      47.927849999999992     48.034749999999995     47.915999999999997
H      47.205550000000002     47.350750000000005     47.536500000000004
H      47.363849999999999     48.871049999999997     47.843100000000007
H      48.794449999999998     48.165649999999999     47.295100000000005
H      48.342749999999995     47.128950000000003     48.704899999999995
