18

C      47.657149999999980     48.622999999999990     47.771199999999993
C      48.582049999999995     47.514200000000002     48.263700000000000
C      47.586949999999987     49.808000000000007     48.396200000000000
C      49.567549999999997     48.015799999999999     49.161999999999999
C      46.518749999999997     48.180599999999998     47.173700000000004
C      48.625450000000001     46.248900000000006     47.727100000000000
C      48.591449999999995     50.224299999999999     49.213900000000002
C      49.584649999999996     49.425899999999999     49.619799999999998
C      46.517649999999989     46.853999999999999     46.633599999999994
C      47.498449999999991     45.865700000000004     47.016299999999994
H      46.711149999999989     50.412000000000006     48.245799999999996
H      50.373649999999998     47.452799999999996     49.181400000000004
H      45.526949999999999     48.820099999999996     46.947699999999998
H      49.156250000000000     45.351200000000006     48.165100000000002
H      48.510949999999994     51.303899999999999     49.450799999999994
H      50.473050000000001     49.565300000000008     50.182600000000001
H      45.610349999999997     46.712100000000007     45.817399999999999
H      47.326149999999998     44.696100000000001     47.106500000000004
