89

C      50.424364999999995     47.276699999999998     52.016249999999992
C      49.174664999999997     47.237900000000003     52.830950000000001
C      50.716664999999999     42.546999999999997     53.288950000000000
C      51.268391000000001     46.049100000000003     51.917850000000001
C      48.817464999999991     45.935500000000005     53.412850000000006
C      51.519933000000002     43.463600000000000     52.576549999999997
C      49.416064999999996     43.254400000000004     53.251350000000002
C      51.023919400000004     44.800500000000000     52.834149999999994
C      49.686164999999995     44.759100000000004     53.379249999999999
C      50.961364999999994     48.461200000000005     51.491349999999997
C      50.212164999999992     49.639400000000009     51.787050000000008
C      48.837264999999995     49.551299999999998     52.260949999999994
C      48.472464999999993     48.350900000000003     53.118949999999998
C      52.451825000000007     48.523400000000009     51.305350000000004
C      52.921915000000006     49.722499999999997     50.654849999999996
C      51.977877000000014     50.864300000000000     50.468649999999997
C      50.872664999999991     50.848299999999995     51.312049999999999
C      53.396435000000004     47.401000000000010     51.532550000000001
C      52.647485000000010     46.110500000000002     51.816649999999996
C      47.857364999999994     50.582200000000000     52.385750000000002
C      46.477964999999990     50.197900000000004     52.829949999999997
C      46.024364999999996     49.106099999999998     53.516649999999998
C      47.043365000000001     48.118499999999997     53.695750000000004
C      47.699565000000000     45.673900000000003     54.196250000000006
C      47.000565000000002     46.871000000000002     54.438050000000004
C      53.389644999999994     44.837499999999999     51.860150000000004
C      52.801415000000013     43.545200000000001     52.001350000000002
C      50.916564999999999     41.073790000000002     53.117549999999994
C      52.097315000000002     52.025599999999997     49.502150000000000
C      44.217764999999993     50.987499999999997     44.536450000000002
C      45.662765000000000     51.080900000000000     44.003550000000004
C      49.683365000000002     54.921700000000001     50.798150000000007
C      43.823964999999994     51.702600000000004     45.611149999999995
C      48.500064999999999     54.507900000000006     51.526449999999997
C      50.192264999999999     54.216899999999995     49.718149999999994
C      46.650964999999992     51.818500000000000     44.823350000000005
C      45.498465000000003     52.918499999999995     50.432850000000002
C      49.298264999999994     53.997000000000000     47.238849999999999
C      48.444564999999990     53.111199999999997     46.439949999999996
C      44.562265000000004     52.443600000000004     47.994349999999997
C      47.642265000000002     53.735600000000005     50.712149999999994
C      49.190064999999997     53.968100000000000     48.639750000000006
C      44.762364999999996     52.213399999999993     46.577449999999999
C      45.542164999999990     53.086900000000000     48.879850000000005
C      46.220565000000001     52.344499999999996     46.093649999999997
C      47.132865000000002     52.820599999999999     47.013850000000005
C      47.902464999999999     53.621499999999997     49.313050000000004
C      46.817464999999991     53.149500000000003     48.398350000000008
C      48.020164999999999     52.039600000000007     44.319749999999999
C      48.926364999999997     52.706200000000010     45.166650000000004
C      43.218964999999990     50.172399999999996     43.830950000000001
C      43.786364999999996     49.805999999999997     42.524249999999995
C      45.108764999999998     49.728600000000000     42.171049999999994
C      46.146965000000002     50.491600000000005     42.765550000000005
C      47.608465000000002     50.554800000000000     42.522350000000003
C      48.431165000000000     50.807400000000001     43.635949999999994
C      41.821165000000001     49.945300000000003     43.967349999999996
H      48.434265000000003     42.872000000000000     52.873549999999994
H      54.017875000000004     49.638300000000001     50.571650000000005
H      50.981064999999994     51.809800000000010     51.705650000000006
H      48.158065000000001     51.400199999999998     51.517250000000004
H      45.787964999999993     51.204599999999999     52.784750000000003
H      44.781765000000000     48.890200000000000     53.330050000000000
H      45.920164999999990     46.730200000000004     55.022649999999999
H      47.585365000000003     44.559400000000004     54.613749999999996
H      54.504845000000003     44.860399999999998     51.841350000000006
H      53.085965000000002     42.454900000000002     52.154550000000000
H      54.961935000000004     47.267499999999998     52.391949999999994
H      51.221798000000014     40.791570000000000     52.040050000000008
H      52.076075000000003     40.693220000000004     53.908649999999994
H      50.069564999999990     40.631799999999998     53.631950000000003
H      51.467276000000005     51.639300000000006     48.644750000000002
H      53.186555000000006     52.381299999999996     49.197950000000006
H      50.468065000000003     55.368200000000002     51.326049999999995
H      48.274165000000004     54.714500000000001     52.434150000000002
H      44.447264999999994     52.700100000000006     50.879149999999996
H      50.024165000000004     54.506200000000000     46.624949999999998
H      43.765165000000003     52.763900000000007     48.700649999999996
H      49.952864999999996     52.627300000000005     45.103049999999996
H      43.073164999999996     49.162099999999995     41.679150000000007
H      45.335464999999992     49.658100000000005     40.977350000000001
H      47.981964999999995     50.142700000000005     41.596649999999997
H      49.417664999999992     50.554299999999998     43.311549999999997
H      42.848864999999996     51.582000000000001     45.964749999999995
H      41.038064999999996     50.502300000000005     43.356849999999994
H      41.704765000000002     50.709900000000005     44.898550000000000
N      46.464764999999993     53.118700000000004     51.188749999999999
O      54.744255000000003     47.360299999999995     51.410150000000002
O      51.126066999999999     53.339300000000009     49.861750000000001
