61

C      50.101349999999996     49.029354999999981     49.236239999999981
C      49.508049999999997     48.253754999999991     50.226439999999997
C      45.778949999999995     49.125454999999995     46.720839999999995
C      45.056249999999991     48.377754999999986     47.747839999999997
C      49.309150000000002     49.239154999999990     47.993439999999993
C      48.228650000000002     47.803654999999999     49.971840000000000
C      47.282150000000001     49.277354999999993     46.524839999999998
C      46.009950000000003     47.873954999999988     48.709840000000000
C      47.989149999999995     49.007354999999997     47.790440000000004
C      47.327950000000001     48.312354999999990     48.927440000000004
C      51.596949999999993     49.326754999999999     49.368039999999993
C      52.242049999999992     48.680454999999988     50.421639999999996
C      51.284549999999996     48.104254999999988     51.382277999999999
C      44.983949999999993     49.872954999999997     45.814139999999995
C      43.893749999999997     49.367654999999992     45.142340000000004
C      43.242649999999998     48.439054999999989     45.943240000000003
C      43.706450000000004     48.194354999999995     47.239040000000003
C      52.373149999999995     49.741854999999994     48.103139999999996
C      53.781250000000000     49.728054999999991     48.289940000000001
C      54.233350000000002     49.266954999999989     49.505740000000003
C      53.689849999999993     48.727454999999999     50.676040000000000
C      51.470050000000001     50.085854999999988     47.006439999999998
C      50.084949999999992     49.964154999999998     46.919439999999994
C      49.380549999999999     50.616726000000000     45.678640000000001
C      47.966250000000002     49.979854999999993     45.496439999999993
C      47.275049999999993     50.284554999999990     44.170339999999996
C      48.884249999999994     51.969945000000003     46.038640000000001
C      43.478749999999991     46.345954999999996     48.683139999999995
C      43.464050000000000     46.268754999999992     50.171040000000005
C      44.458150000000003     45.471054999999986     48.174840000000003
C      44.156149999999997     45.161554999999986     50.807243000000014
C      42.745249999999999     47.492754999999995     48.071839999999995
C      42.378450000000001     46.774354999999993     50.833843000000002
C      45.081149999999994     44.367754999999995     48.956239999999994
C      44.703450000000004     44.007454999999986     50.273340000000005
C      41.801349999999999     48.235954999999997     48.918239999999997
C      41.462549999999993     47.564854999999987     50.078140000000005
H      47.884649999999993     47.020754999999987     50.691964670000004
H      45.787250000000000     47.282454999999992     49.606840000000005
H      51.703149999999994     48.127854999999990     52.521360000000001
H      45.550349999999995     50.576402299999991     45.235140000000001
H      43.428849999999997     49.952654999999986     44.172839999999994
H      42.285749999999993     47.694354999999995     45.691739999999996
H      54.502449999999996     50.104354999999991     47.582139999999995
H      55.365049999999997     49.171754999999997     49.445239999999998
H      54.347349999999992     48.374454999999990     51.493200999999999
H      52.237749999999991     50.251254999999993     46.170739999999995
H      50.221649999999997     50.606728699999998     44.818140000000000
H      46.902249999999995     49.305454999999988     43.859340000000003
H      49.311349999999990     51.992044999999997     47.119439999999997
H      47.786450000000002     52.094565000000010     46.183239999999998
H      49.276849999999996     52.950845000000008     45.616140000000001
H      44.563249999999996     45.536354999999993     47.051739999999995
H      44.199749999999995     44.830754999999989     51.892560000000017
H      41.405050000000003     49.287654999999994     48.634640000000005
H      42.358249999999998     46.523954999999994     51.809550000000016
H      45.729550000000003     43.656854999999986     48.525239999999997
H      44.776849999999996     43.049154999999992     50.793585000000007
H      40.634950000000003     47.961554999999997     50.883904000000015
N      50.042549999999991     47.841954999999992     51.389330000000015
O      47.439349999999990     51.270673000000009     43.478639999999999
