5

C      48.265149999999991     47.625899999999994     48.024099999999990
H      48.637149999999991     47.574399999999997     46.995799999999996
H      48.845349999999996     47.385000000000005     49.004200000000004
H      48.681150000000002     48.614999999999995     48.336399999999990
H      47.154650000000004     47.781000000000006     47.830199999999998
