18

C      47.293824999999984     47.706249999999997     48.606599999999993
C      48.332884999999990     47.601749999999996     47.565399999999997
C      45.930655000000002     47.492850000000004     48.099499999999992
C      47.995284999999996     47.785750000000007     46.245899999999992
C      47.895224999999996     48.029350000000008     49.834299999999999
C      49.799484999999990     47.525250000000000     47.840900000000005
C      45.632994999999994     48.119050000000001     46.952699999999993
C      46.732984999999999     48.460249999999988     45.981899999999996
C      49.255984999999995     47.923349999999999     50.125699999999995
C      50.297884999999994     47.739849999999990     49.156400000000005
H      45.299115000000000     47.347350000000006     48.928200000000004
H      48.487984999999995     47.421050000000008     45.416700000000006
H      47.500014999999991     48.133949999999999     50.662899999999993
H      50.603985000000009     47.896749999999997     47.212999999999994
H      44.687114999999991     48.583950000000002     46.916700000000006
H      46.281804999999991     48.652649999999994     44.821500000000000
H      49.764984999999996     47.719049999999996     51.178500000000000
H      51.312885000000009     47.955449999999999     49.286500000000004
