5

C      48.204549999999983     48.021249999999995     48.043700000000001
H      47.841549999999998     48.601350000000004     47.158999999999999
H      47.477149999999995     48.214850000000006     48.841000000000001
H      48.579450000000008     47.438150000000000     48.756400000000006
H      47.420549999999992     47.398649999999996     47.482100000000010
