5

C      47.764599999999994     47.999199999999988     47.823899999999988
H      47.086500000000001     47.173899999999996     47.688999999999993
H      48.913499999999999     47.970299999999995     48.070300000000003
H      47.589199999999998     48.463399999999993     48.830900000000000
H      47.935400000000001     48.826100000000004     47.169100000000000
