18

C      48.578299999999999     47.918949999999995     47.724949999999993
C      47.098100000000002     48.077249999999992     48.231350000000006
C      48.331800000000001     47.665149999999997     46.426550000000006
C      45.880200000000002     47.819249999999997     47.592550000000003
C      49.860199999999992     48.335549999999998     48.113150000000005
C      47.432299999999998     48.852849999999989     49.489649999999997
C      47.265900000000002     46.876350000000002     45.845250000000007
C      46.055300000000003     47.151449999999997     46.359150000000000
C      50.076800000000006     48.789150000000006     49.478850000000008
C      48.766900000000007     49.149950000000004     49.973250000000007
H      49.268199999999993     47.505949999999999     45.739850000000004
H      44.905100000000004     47.897549999999995     48.028550000000010
H      50.444599999999994     48.608149999999995     47.260050000000007
H      46.437899999999999     49.266850000000005     49.753349999999998
H      47.100300000000004     46.332750000000004     45.003950000000003
H      45.227900000000005     46.682450000000003     45.850650000000002
H      51.094899999999996     49.022149999999996     49.844850000000008
H      48.804499999999990     49.667249999999996     50.996049999999997
