5

C      47.857199999999992     47.935949999999991     47.740899999999996
H      47.806599999999996     48.105950000000000     48.858600000000003
H      47.084600000000002     47.127550000000006     48.044800000000002
H      48.915399999999998     47.703949999999999     47.346700000000006
H      47.625099999999996     48.872449999999994     47.141399999999997
