35

C      49.141799999999989     47.979799999999990     47.347849999999994
C      48.683599999999998     48.653399999999991     46.096550000000008
C      45.908799999999999     45.088600000000000     46.166650000000004
C      48.824200000000005     46.639799999999994     47.785849999999996
C      47.864199999999997     47.903499999999994     45.305450000000008
C      47.034199999999998     44.837899999999998     47.101550000000003
C      45.988299999999995     46.305799999999991     45.354849999999999
C      47.863000000000000     45.960499999999996     46.878450000000001
C      47.243499999999997     46.803799999999995     45.843249999999998
C      49.750100000000003     48.909999999999997     48.275850000000005
C      49.841099999999997     50.283999999999992     48.050350000000009
C      49.187800000000010     50.935800000000000     46.955550000000002
C      48.848500000000001     50.108099999999993     45.939350000000005
C      50.165000000000006     48.450999999999993     49.525250000000000
C      50.493700000000004     49.296899999999994     50.563050000000004
C      50.686400000000006     50.758700000000005     50.468350000000015
C      50.231900000000010     51.179699999999997     49.212750000000000
C      49.977600000000010     47.075099999999992     49.639150000000001
C      49.363500000000002     46.074199999999998     48.974850000000004
C      47.217799999999997     43.380799999999994     47.624449999999996
C      48.835800000000006     52.460799999999992     46.946350000000010
H      45.313599999999994     44.313399999999994     45.983350000000002
H      47.485699999999994     48.446799999999996     44.381749999999997
H      45.407600000000002     47.065599999999996     44.888649999999998
H      48.037700000000001     50.483099999999993     45.277749999999997
H      50.483199999999997     48.747000000000000     51.618250000000003
H      50.605900000000005     51.432699999999997     51.344949999999997
H      50.010800000000003     52.375199999999992     49.133650000000003
H      50.456400000000002     46.550699999999992     50.582850000000008
H      46.267799999999994     42.871600000000001     47.722550000000012
H      48.759199999999993     53.128399999999999     45.931250000000006
H      49.043499999999995     44.334899999999998     49.943150000000003
O      48.316400000000002     42.965499999999992     47.842849999999999
O      48.388800000000003     53.128199999999993     47.840450000000004
O      49.421500000000009     44.707299999999996     49.165950000000009
