18

C      48.182149999999993     48.620299999999986     47.303499999999993
C      48.200050000000005     47.781999999999996     48.541600000000003
C      48.954650000000001     48.028500000000008     46.204599999999999
C      48.728250000000003     46.479900000000001     48.536600000000007
C      47.257750000000001     49.675500000000000     47.264400000000002
C      47.934250000000006     48.591000000000008     49.793199999999999
C      49.292550000000006     46.633300000000006     46.183500000000002
C      49.044349999999994     45.820700000000002     47.321700000000007
C      46.898250000000004     50.242599999999996     48.490200000000002
C      46.942949999999996     49.626599999999996     49.784700000000001
H      49.290150000000011     48.706699999999998     45.365500000000004
H      48.966550000000012     45.887799999999999     49.517099999999999
H      47.326049999999995     50.302900000000008     46.343600000000002
H      48.711849999999998     48.486999999999995     50.629000000000005
H      49.768749999999997     46.055599999999998     45.296700000000001
H      49.572450000000003     44.905799999999999     47.300100000000000
H      46.231250000000003     51.094200000000001     48.496700000000004
H      46.423850000000002     50.310800000000000     50.703299999999999
