41

C      48.026399999999995     47.220299999999995     47.984599999999986
C      47.187000000000005     46.539699999999996     47.082700000000003
C      47.189399999999999     50.663200000000003     44.925700000000006
C      48.453299999999999     48.676400000000001     47.794200000000004
C      46.755499999999998     47.268299999999996     45.925500000000000
C      47.947700000000005     50.510599999999997     46.084599999999995
C      47.841999999999999     49.179400000000001     46.581000000000003
C      46.976399999999998     48.602199999999996     45.499600000000001
C      48.530099999999997     46.443299999999994     49.199400000000011
C      48.212000000000003     44.999200000000002     49.392499999999998
C      47.348700000000001     44.400899999999993     48.425100000000000
C      46.904100000000000     45.124499999999998     47.332800000000006
C      49.713500000000003     47.005699999999990     49.736000000000004
C      50.280399999999993     46.411400000000000     50.924200000000013
C      49.792800000000000     45.168300000000002     51.317800000000005
C      48.802700000000002     44.472099999999998     50.663799999999995
C      50.316299999999991     48.220799999999997     49.130899999999997
C      46.405300000000004     46.436999999999998     44.690500000000000
C      45.472700000000003     45.356899999999996     45.216400000000007
C      46.169100000000000     44.390000000000001     46.201099999999997
C      46.998699999999999     51.905900000000003     44.126199999999997
C      47.945000000000000     43.539699999999996     51.521300000000011
C      49.761200000000009     49.039400000000001     48.110200000000006
H      48.585400000000000     51.416600000000003     46.371800000000007
H      46.980499999999999     43.314300000000003     48.563500000000005
H      50.971399999999996     46.909300000000002     51.490300000000005
H      51.246400000000001     48.668799999999990     49.541100000000000
H      47.250200000000000     46.168399999999991     44.022199999999998
H      45.776200000000003     46.968699999999998     43.852599999999995
H      44.993400000000001     44.693799999999996     44.535899999999998
H      44.753599999999999     45.973699999999994     45.671999999999997
H      45.141700000000000     43.913200000000003     46.342799999999997
H      46.780100000000004     43.698599999999999     45.421300000000002
H      46.237200000000001     51.632300000000001     43.408699999999996
H      48.454500000000003     43.413700000000006     52.591300000000004
H      50.776299999999999     43.783400000000000     52.512200000000007
H      50.162299999999995     50.178100000000001     47.866200000000006
N      46.667300000000004     49.484699999999989     44.611800000000002
O      47.069400000000002     53.019599999999997     44.581000000000003
O      46.955199999999998     42.980400000000003     51.271100000000004
O      50.460299999999997     44.645899999999997     52.392799999999994
