18

C      48.352049999999998     48.458449999999985     48.622259999999997
C      48.493049999999997     47.164349999999999     47.763069999999999
C      47.445850000000007     48.772549999999995     49.563450000000003
C      47.571050000000000     46.155050000000003     48.155640000000005
C      49.212550000000007     49.697450000000003     48.386380000000003
C      49.415850000000006     47.179450000000003     46.790250000000000
C      46.529650000000004     47.692250000000001     49.938550000000006
C      46.580349999999996     46.563050000000004     49.082849999999993
C      49.731650000000002     49.578850000000003     47.055760000000006
C      49.528149999999997     48.484949999999998     46.117199999999997
H      47.226550000000003     49.852350000000001     50.089709999999997
H      47.147050000000007     45.562849999999997     47.249380000000002
H      49.388149999999996     50.382050000000007     49.252839999999992
H      49.758350000000007     46.336050000000000     46.390740000000008
H      45.722750000000005     47.795749999999998     50.772980000000004
H      45.933049999999994     45.707949999999997     49.183360000000008
H      50.277249999999995     50.437150000000003     46.639970000000005
H      49.059349999999995     48.552549999999997     45.227019999999996
