5

C      47.720049999999993     47.774773999999987     47.833199999999991
H      47.396850000000001     47.626173999999999     48.897799999999997
H      48.855850000000004     47.478625999999998     47.792700000000004
H      47.727550000000008     48.951594000000000     47.482800000000005
H      47.144149999999996     47.048406000000000     47.102200000000003
