18

C      48.383649999999996     48.590979999999988     47.896050000000002
C      47.568750000000009     47.196979999999996     47.917850000000001
C      49.186250000000001     49.037469999999999     48.962050000000005
C      47.996250000000003     46.316149999999993     48.904849999999996
C      48.097250000000003     49.624780000000001     47.091149999999999
C      46.722049999999996     47.024680000000004     46.787450000000007
C      49.089050000000000     48.131770000000003     50.071250000000006
C      48.742050000000006     46.719340000000003     49.946950000000001
C      47.098950000000002     49.456339999999997     46.170550000000006
C      46.667349999999999     48.076759999999993     45.864450000000005
H      46.276949999999999     48.018320000000003     44.889750000000006
H      49.750749999999996     49.889640000000000     49.115350000000007
H      47.469949999999997     45.381739999999994     48.674149999999997
H      48.791150000000002     50.618260000000006     47.232849999999999
H      46.249250000000004     46.109489999999994     46.463549999999998
H      49.327650000000006     48.372940000000000     51.110249999999994
H      48.888149999999996     45.929410000000004     50.703850000000003
H      46.562350000000009     50.189589999999995     45.947350000000000
