18

C      47.383849999999988     47.829299999999989     48.196249999999999
C      48.806349999999995     48.291100000000000     47.861649999999997
C      46.318049999999999     48.102199999999996     47.294049999999999
C      48.978249999999996     48.600900000000010     46.476849999999999
C      47.060249999999996     47.154499999999999     49.432150000000007
C      49.687249999999992     47.907799999999995     48.834750000000000
C      46.642550000000000     48.420699999999997     46.017750000000007
C      47.928349999999995     48.655900000000003     45.602150000000009
C      48.026849999999996     47.054199999999994     50.470950000000002
C      49.329049999999995     47.351900000000001     50.164050000000003
H      45.289749999999998     47.885600000000011     47.692550000000011
H      50.144750000000002     48.796800000000005     46.152950000000004
H      46.047249999999998     47.302300000000002     49.542550000000006
H      50.710250000000002     47.786799999999999     48.491150000000005
H      45.729149999999997     48.561200000000014     45.283349999999999
H      48.092950000000002     49.057000000000002     44.501750000000001
H      47.929249999999996     46.942999999999998     51.498249999999999
H      50.145849999999996     47.392499999999998     50.840050000000005
