46

C      47.625549999999990     48.584999999999994     46.700849999999988
C      47.338650000000001     47.188000000000002     46.107349999999997
C      48.764650000000003     46.398600000000002     50.931349999999995
C      48.554149999999993     44.994900000000001     50.422550000000001
C      47.687749999999994     48.540400000000005     48.159850000000006
C      47.445650000000001     46.061599999999999     46.964249999999993
C      48.415449999999993     47.634000000000000     50.316549999999992
C      48.202849999999998     45.011499999999998     49.156549999999996
C      47.863450000000000     47.333600000000004     49.036249999999995
C      47.808350000000004     46.162999999999997     48.235649999999993
C      47.374250000000004     49.682700000000011     45.816649999999996
C      47.092550000000003     49.562399999999997     44.435649999999995
C      47.038950000000000     48.355100000000007     43.832750000000004
C      47.285049999999998     47.179299999999998     44.638949999999994
C      49.571349999999995     46.042299999999997     52.144149999999996
C      49.346250000000012     44.956100000000006     53.022449999999992
C      48.644549999999995     43.891500000000008     52.616349999999997
C      48.153850000000006     43.863500000000002     51.376249999999999
C      47.345550000000003     50.843999999999994     46.623949999999994
C      46.830150000000003     52.045600000000007     45.837850000000003
C      46.605750000000000     51.841400000000007     44.565950000000001
C      46.743250000000003     50.747600000000006     43.726649999999992
C      47.655749999999998     50.999200000000002     48.062449999999998
C      47.945949999999996     49.888100000000009     48.690849999999998
C      48.476050000000001     49.889799999999994     49.949050000000000
C      48.503950000000003     48.895700000000005     50.906149999999997
C      48.537750000000003     49.666399999999996     52.405950000000004
C      46.164649999999995     50.813100000000006     42.670249999999996
H      47.479649999999992     45.157399999999996     46.337649999999996
H      47.991350000000011     43.997699999999995     48.915549999999996
H      46.753749999999997     48.456100000000006     42.775549999999996
H      47.049049999999994     46.250299999999996     44.049049999999994
H      49.990250000000003     46.969499999999996     52.439250000000001
H      49.830950000000001     44.731499999999997     54.050950000000000
H      47.904650000000004     43.019599999999997     50.957250000000002
H      46.998249999999999     53.008700000000005     46.559650000000005
H      46.471249999999998     52.924100000000010     43.991849999999999
H      47.634550000000004     52.077399999999997     48.381249999999994
H      48.275850000000005     51.046099999999996     50.217150000000004
H      48.319450000000003     43.070700000000002     54.250150000000005
H      49.536450000000002     49.465299999999999     52.557649999999995
H      47.744950000000003     49.412099999999995     53.035650000000004
H      48.657049999999998     50.668499999999995     51.783249999999995
H      46.233149999999995     49.870300000000015     42.183049999999994
H      46.009749999999997     51.598500000000001     41.749849999999995
O      47.859650000000002     42.991299999999995     53.364750000000001
