18

C      47.453849999999996     48.876750000000001     48.934609999999992
C      48.442049999999995     47.868550000000006     48.785810000000005
C      47.723050000000001     49.985350000000004     47.975110000000001
C      49.829449999999994     48.208949999999994     48.495410000000000
C      46.110249999999994     48.545449999999995     49.059010000000008
C      48.273849999999996     46.516250000000007     49.272810000000000
C      48.890349999999998     50.258450000000003     47.428609999999999
C      50.100750000000005     49.437750000000001     47.873910000000002
C      45.880650000000003     47.279249999999998     49.406010000000002
C      46.934249999999992     46.280650000000001     49.593110000000003
H      46.791650000000004     50.657149999999994     47.792110000000001
H      50.513949999999994     47.289149999999999     48.579509999999999
H      45.356949999999998     49.425950000000007     49.061309999999999
H      48.867249999999999     45.487450000000003     49.285810000000005
H      48.735249999999994     50.743450000000003     46.406889999999997
H      51.085149999999999     49.739550000000001     47.440510000000003
H      44.914850000000001     46.911949999999997     49.505410000000005
H      46.595550000000003     45.256549999999997     49.364710000000009
