18

C      47.834249999999997     47.829949999999990     47.492999999999981
C      48.302849999999999     48.647850000000005     48.690299999999993
C      47.061850000000000     46.740549999999999     47.892699999999991
C      47.533650000000002     49.011350000000007     49.823700000000002
C      48.676150000000000     47.691949999999999     46.367899999999992
C      49.368950000000005     49.567250000000001     48.569299999999998
C      46.174450000000000     47.019749999999995     48.944800000000001
C      46.403050000000000     48.182649999999995     49.810800000000000
C      49.887350000000005     48.382950000000001     46.352899999999991
C      50.277149999999999     49.329249999999995     47.347899999999996
H      46.886850000000003     45.655649999999994     47.338600000000000
H      47.515750000000004     49.789850000000001     50.586700000000008
H      48.452350000000003     47.169349999999994     45.379899999999992
H      49.710649999999994     50.344350000000006     49.296499999999995
H      45.070850000000000     46.783549999999998     49.309500000000000
H      45.515450000000001     48.351450000000000     50.620100000000008
H      50.394750000000009     48.507549999999995     45.611799999999988
H      50.929150000000000     50.237549999999999     47.309100000000001
