20

C      48.887149999999991     49.313349999999986     47.562799999999996
C      48.426850000000002     48.778950000000002     48.771100000000004
C      47.168250000000000     47.956550000000000     48.659999999999997
C      46.245450000000005     47.925149999999995     47.574100000000001
C      46.685450000000003     48.923650000000002     46.616799999999998
C      48.114650000000005     49.260849999999998     46.470900000000000
C      47.139050000000005     46.962349999999994     49.770399999999995
C      47.961250000000000     47.730950000000000     50.812799999999996
C      48.693049999999999     49.701649999999994     45.085999999999999
H      45.248049999999999     47.437350000000002     47.593599999999995
H      45.798050000000003     49.265149999999998     45.996899999999997
H      48.544550000000001     47.037249999999993     51.439200000000000
H      47.470350000000003     48.157450000000004     51.710999999999999
H      50.751950000000001     49.847249999999995     48.024199999999993
H      49.751650000000005     49.984749999999998     45.442899999999995
H      47.960450000000002     49.982350000000004     44.289000000000001
H      49.033149999999999     48.787950000000002     44.571500000000000
O      46.349750000000000     46.015250000000002     49.892599999999987
O      48.750550000000004     48.980749999999993     49.958500000000001
O      50.242750000000001     49.390849999999993     47.236500000000007
