74

C      49.930049999999994     50.904959999999988     46.018599999999992
C      50.976550000000003     51.930860000000010     46.177299999999995
C      50.728849999999994     52.412460000000010     47.434800000000003
C      49.333449999999999     52.460459999999998     47.968899999999998
C      48.141350000000003     52.183160000000001     47.181500000000000
C      48.446650000000005     51.098660000000010     46.371999999999993
C      49.942549999999997     49.923010000000005     45.114300000000000
C      47.230649999999997     50.716359999999995     45.544999999999995
C      46.982749999999996     50.421059999999997     49.605200000000004
C      52.598650000000006     45.734300000000005     49.862599999999993
C      46.731750000000005     48.991020000000006     49.562700000000000
C      51.157250000000005     45.466999999999999     49.763200000000005
C      48.295850000000002     51.039060000000006     49.771999999999998
C      52.615150000000000     47.116140000000001     49.844999999999999
C      47.682150000000007     47.988619999999997     49.776799999999994
C      50.022849999999991     46.279560000000004     49.617799999999995
C      50.663150000000002     50.221559999999997     50.382100000000001
C      51.848650000000006     49.437269999999998     50.174499999999988
C      49.262450000000001     49.982960000000006     50.007399999999997
C      51.550950000000000     48.076459999999997     49.931199999999997
C      49.013350000000003     48.575339999999997     49.723799999999990
C      50.184150000000002     47.682639999999992     49.685299999999991
C      47.443650000000005     46.533429999999996     49.840699999999991
C      48.638249999999999     45.733170000000001     49.994999999999997
C      45.778250000000000     51.171359999999993     49.419599999999996
C      44.446150000000003     50.789860000000004     49.312700000000000
C      44.335549999999998     49.462940000000003     49.779599999999995
C      45.428950000000000     48.423320000000004     49.756599999999999
C      45.080349999999996     47.031170000000003     49.519299999999994
C      46.185050000000004     45.994270000000000     49.601599999999998
C      53.663449999999997     44.759289999999993     49.673099999999998
C      53.405050000000003     43.385679999999994     49.497699999999988
C      52.035849999999996     43.112359999999995     49.642500000000005
C      50.927149999999997     44.049170000000004     49.484299999999998
C      49.612549999999999     43.545370000000005     49.882299999999994
C      48.315250000000006     44.289289999999994     49.973499999999994
C      45.941249999999997     44.621449999999996     49.378200000000000
C      46.971750000000000     43.749290000000002     49.709499999999998
C      48.710449999999994     52.344260000000006     50.187099999999994
C      49.194749999999999     53.240459999999999     49.247499999999995
C      45.848150000000004     52.662360000000007     49.399999999999999
C      42.930949999999996     48.963949999999997     49.840899999999998
C      41.576949999999997     49.737369999999999     49.415799999999997
C      49.538250000000005     42.411689999999993     50.541100000000000
H      41.015749999999997     48.831280000000007     49.576900000000002
H      51.894549999999995     51.883859999999999     45.681500000000000
H      51.489950000000007     52.996960000000001     47.665900000000001
H      47.231350000000006     49.609499999999997     45.585599999999999
H      47.225049999999996     52.383759999999995     47.570099999999989
H      49.272450000000006     49.001779999999997     44.909299999999995
H      51.057649999999995     49.667019999999994     44.955499999999994
H      47.292749999999998     50.979759999999999     44.637899999999995
H      46.185550000000006     50.825760000000002     45.664699999999996
H      53.566149999999993     47.590369999999993     49.935799999999993
H      50.998350000000002     51.106459999999998     50.693399999999990
H      53.003749999999997     49.702550000000002     50.384899999999995
H      43.699050000000000     51.515860000000004     49.041500000000006
H      44.024749999999997     46.432789999999997     49.707199999999993
H      54.051549999999992     42.618409999999997     49.129199999999990
H      52.035049999999998     42.172770000000000     49.169399999999996
H      45.041550000000001     44.100449999999995     49.398099999999999
H      46.893450000000001     42.767479999999992     49.465699999999991
H      46.433149999999998     53.543459999999996     49.779800000000002
H      48.699050000000000     52.669960000000003     51.362100000000005
H      49.465450000000004     54.311660000000003     49.492500000000000
H      44.645650000000003     52.972660000000005     49.626799999999996
H      45.749849999999995     52.779960000000003     48.211299999999994
H      41.559150000000002     50.683059999999998     49.950700000000005
H      41.386550000000000     49.920509999999993     48.357099999999996
H      54.984250000000003     46.183899999999994     49.517800000000001
H      48.543650000000000     41.945999999999998     50.924299999999995
H      50.264550000000000     41.688339999999997     50.929200000000002
O      42.976450000000000     48.178449999999998     50.762799999999991
O      54.875550000000004     45.309860000000000     49.729999999999997
