18

C      47.827849999999991     48.574249999999992     47.441999999999979
C      48.205749999999995     47.842549999999996     48.587499999999991
C      46.798149999999993     49.511949999999992     47.616599999999991
C      47.825949999999992     48.224150000000002     49.904320000000013
C      48.660849999999996     48.069650000000003     46.261600000000001
C      48.770349999999993     46.443049999999999     48.269399999999990
C      46.621849999999995     50.075949999999999     48.924358999999995
C      47.128149999999998     49.433950000000003     50.102630000000005
C      49.098950000000002     46.763849999999998     45.790199999999999
C      48.847650000000002     45.980049999999999     47.025700000000001
H      46.971649999999997     50.438849999999995     46.924700000000001
H      47.977249999999998     47.921050000000001     50.785300000000007
H      49.065849999999998     48.727849999999997     45.603799999999993
H      48.559149999999995     45.575749999999999     49.044564000000008
H      46.326149999999998     51.212449999999997     48.966510000000000
H      46.856649999999995     50.119850000000000     51.042800000000000
H      49.673850000000002     46.314250000000001     44.957200000000000
H      48.995349999999988     44.787550000000003     46.884699999999995
