18

C      47.208249999999992     47.603899999999996     48.035149999999980
C      48.088850000000001     48.785899999999998     47.784949999999995
C      47.673250000000003     46.825200000000002     46.926749999999998
C      48.753049999999995     49.210400000000000     46.563449999999989
C      46.968250000000005     47.234800000000000     49.403449999999992
C      48.618050000000004     49.556199999999997     48.887649999999994
C      47.366850000000007     47.339199999999998     45.564349999999990
C      48.306450000000005     48.506999999999998     45.403250000000000
C      47.032149999999994     48.407400000000003     50.298849999999987
C      47.922850000000004     49.443300000000001     50.063849999999988
H      48.090049999999998     45.702599999999997     46.969649999999987
H      49.485149999999997     49.846600000000002     46.680749999999989
H      46.548150000000000     46.244500000000002     49.598649999999992
H      49.420049999999996     50.297400000000003     48.839549999999988
H      47.597749999999998     46.663600000000002     44.887149999999991
H      48.987749999999998     48.659999999999997     44.678950000000000
H      46.514850000000003     48.062199999999997     51.321050000000000
H      48.091850000000001     50.209600000000002     50.861349999999987
