18

C      48.590469999999989     48.445720000000001     47.874549999999992
C      47.667479999999998     47.460460000000005     48.566850000000002
C      49.084820000000008     48.000410000000002     46.592150000000004
C      47.414960000000001     46.239320000000014     47.874549999999992
C      48.568839999999994     49.725459999999998     48.146850000000001
C      47.411420000000000     47.932820000000007     49.946750000000002
C      48.724680000000006     46.821293000000004     45.836550000000003
C      47.973860000000002     45.949120000000015     46.581150000000001
C      47.632869999999997     50.079149999999998     49.107450000000000
C      46.916399999999996     49.302410000000009     50.167349999999999
H      49.634000000000000     48.636710000000008     45.943650000000005
H      46.626039999999996     45.788520000000034     48.537750000000003
H      49.121549999999999     50.496030000000005     47.383849999999995
H      47.279330000000002     47.242559000000007     50.810050000000004
H      48.827529999999996     46.560799000000003     44.854050000000001
H      47.638610000000000     45.036220000000000     46.184449999999998
H      47.257199999999997     50.963780000000000     49.478949999999998
H      46.366000000000000     49.601160000000007     51.145949999999999
