18

C      48.654299999999999     48.073549999999990     48.617649999999983
C      47.475400000000000     47.925449999999998     48.036749999999991
C      49.240400000000001     47.353049999999996     49.739449999999998
C      46.585400000000000     47.635049999999993     49.082649999999994
C      49.587100000000000     48.916449999999998     47.758649999999996
C      46.920900000000003     48.364449999999998     46.722549999999991
C      48.344600000000000     46.438949999999998     50.190849999999990
C      46.959900000000005     46.549249999999994     49.843249999999991
C      49.185000000000002     49.564149999999998     46.645350000000001
C      47.752600000000001     49.307450000000003     46.277949999999997
H      50.185600000000001     47.482650000000000     50.315849999999990
H      45.413100000000000     47.829549999999998     48.847149999999992
H      50.586900000000000     48.897649999999999     48.201149999999991
H      45.901700000000005     48.081149999999994     46.236950000000000
H      48.891300000000001     45.710049999999995     50.846550000000001
H      46.440800000000003     45.992849999999997     50.614249999999991
H      50.002600000000001     50.289950000000005     46.202049999999993
H      47.502499999999998     50.055449999999993     45.153449999999999
