18

C      48.194099999999992     47.983449999999991     48.486549999999994
C      48.197799999999994     47.806649999999998     46.995249999999999
C      48.405099999999997     47.097249999999995     49.531650000000013
C      48.532599999999995     46.409249999999993     46.634050000000002
C      47.549500000000002     49.092049999999993     49.097049999999996
C      47.250300000000003     48.558450000000001     46.232650000000007
C      49.024200000000000     45.899149999999999     49.114250000000013
C      48.936699999999995     45.688750000000006     47.786749999999998
C      47.116499999999995     50.056350000000002     48.179349999999999
C      47.082599999999992     49.820850000000000     46.716549999999998
H      48.219000000000001     47.420549999999999     50.812550000000002
H      48.911999999999999     46.447750000000006     45.671350000000004
H      47.527899999999995     49.030949999999997     50.287950000000009
H      47.169499999999992     48.332950000000004     45.187449999999998
H      49.386400000000002     45.251550000000002     49.791449999999998
H      49.643700000000003     44.881650000000000     47.556049999999999
H      46.748600000000003     51.118350000000000     48.556150000000002
H      46.356299999999997     50.806249999999999     46.243949999999998
