8

C      48.088999999999999     47.225599999999993     47.784099999999995
C      47.912600000000005     48.670500000000004     47.459999999999994
H      47.106800000000000     46.757500000000000     47.689599999999999
H      48.210600000000007     47.126400000000004     48.913600000000002
H      49.064000000000000     47.093800000000002     47.192599999999999
H      48.871200000000009     49.168300000000002     47.103099999999998
H      46.936000000000000     48.879300000000001     47.086399999999998
H      47.609800000000000     49.242500000000000     48.343899999999991
