42

C      52.536799999999999     46.414499999999997     49.721899999999991
C      42.592399999999998     49.670199999999994     45.984600000000000
C      52.576599999999999     47.322599999999994     48.690600000000003
C      42.242100000000008     48.658599999999993     46.766599999999997
C      51.209400000000002     46.138800000000003     50.114199999999997
C      43.953000000000003     50.184699999999992     45.892899999999997
C      51.314100000000010     47.656499999999994     47.799400000000006
C      43.452799999999996     48.039400000000001     47.537000000000006
C      48.612200000000001     45.937100000000001     49.584000000000003
C      46.512600000000006     49.821500000000000     46.074399999999997
C      46.449700000000007     46.893599999999992     48.326000000000008
C      48.539600000000007     48.272099999999995     46.548299999999998
C      50.019400000000005     46.269000000000005     49.458799999999997
C      45.123000000000005     49.589900000000000     46.300300000000007
C      47.944299999999998     46.657200000000003     48.524600000000007
C      47.196700000000007     48.683800000000005     46.670500000000004
C      50.122000000000000     46.979199999999992     48.143500000000003
C      44.842100000000002     48.390000000000001     47.098500000000001
C      48.807900000000004     47.414599999999993     47.637200000000007
C      46.124400000000009     47.859600000000000     47.399400000000000
C      51.210300000000004     48.277500000000003     46.406500000000008
C      49.586100000000002     49.027299999999997     45.840400000000002
C      45.246200000000002     45.948399999999992     48.503299999999996
C      53.806500000000000     47.845500000000001     48.280400000000000
H      42.100499999999997     50.391499999999994     45.273499999999999
H      41.242400000000004     48.380899999999997     46.956299999999999
H      50.951400000000007     45.297600000000003     50.931800000000010
H      44.262900000000002     51.032499999999999     45.479100000000003
H      43.397300000000001     47.286699999999996     48.452300000000008
H      48.263900000000007     45.323700000000002     50.477100000000007
H      47.202500000000001     50.489599999999996     45.796599999999998
H      51.274500000000003     47.535799999999995     45.696100000000001
H      51.852000000000004     49.138400000000004     46.235299999999995
H      49.525199999999998     49.904100000000000     46.239300000000000
H      49.463700000000003     49.088700000000003     44.864300000000000
H      53.394799999999989     45.603600000000000     51.135700000000000
H      45.250399999999999     45.902400000000000     49.662500000000009
H      45.487099999999998     44.967500000000001     48.052700000000002
H      44.362600000000000     46.475200000000001     48.047899999999998
H      54.067899999999995     48.508499999999998     47.427800000000005
H      54.757599999999996     47.706500000000005     48.824799999999996
O      53.586199999999991     46.127099999999999     50.579300000000003
