6

C      47.996999999999986     48.755449999999989     47.738149999999983
C      47.896799999999999     47.415149999999997     47.376649999999998
H      47.586500000000001     49.357950000000002     48.623350000000002
H      48.945800000000006     49.043350000000004     48.255249999999990
H      48.664099999999991     46.649050000000003     47.612949999999998
H      47.054199999999994     46.642049999999998     47.578249999999997
