52

C      48.457099999999990     48.666550000000001     47.551599999999993
C      46.327100000000002     48.940550000000009     49.976199999999999
C      46.376800000000003     50.013050000000000     48.984400000000001
C      42.872900000000001     48.190950000000008     47.010600000000004
C      45.347900000000003     47.970550000000010     49.795600000000000
C      45.243900000000004     50.353550000000006     48.184200000000004
C      43.366500000000002     47.469550000000005     48.020499999999991
C      44.184899999999999     48.253350000000005     48.866199999999999
C      44.271599999999999     49.303249999999998     47.882600000000004
C      45.947600000000001     46.584350000000008     50.037800000000011
C      43.746400000000001     44.806550000000009     48.028200000000005
C      43.156599999999997     45.944150000000000     48.486499999999999
C      46.677500000000002     45.766150000000003     49.285400000000003
C      47.624699999999997     45.225250000000010     48.469600000000007
C      42.697699999999998     43.800850000000004     48.415199999999999
C      47.372599999999998     51.077249999999999     49.130900000000004
C      44.944000000000003     44.842550000000010     46.928500000000000
C      51.137599999999992     51.187850000000005     46.806100000000001
C      50.678700000000006     52.236950000000000     47.655899999999995
C      52.483800000000002     50.765350000000005     46.431300000000000
C      51.610299999999995     52.853050000000003     48.594699999999996
C      50.077100000000002     50.218350000000008     46.432800000000000
C      49.168199999999999     52.493450000000003     47.891600000000004
C      53.390799999999999     51.478850000000001     47.196400000000004
C      52.846100000000000     52.385950000000001     48.308199999999992
C      48.996899999999997     50.151750000000000     47.387400000000000
C      48.488000000000000     51.083750000000002     48.300300000000000
H      47.577500000000001     48.362250000000010     46.999300000000005
H      49.215900000000005     47.931750000000001     47.262300000000003
H      47.291000000000004     48.612749999999998     50.367899999999999
H      42.394700000000000     47.883350000000000     46.102000000000004
H      45.259999999999998     45.787950000000002     50.359900000000003
H      42.255899999999997     45.969250000000009     49.137999999999998
H      48.527900000000002     45.870650000000005     48.043900000000001
H      48.448100000000004     44.618450000000003     48.842700000000001
H      42.954999999999998     42.677050000000001     47.842700000000001
H      41.664900000000003     44.179750000000006     48.365200000000002
H      48.351500000000001     48.437950000000008     48.674100000000003
H      47.153199999999998     51.823150000000005     49.932300000000005
H      44.786099999999998     45.400150000000004     45.973199999999999
H      45.654800000000002     45.438450000000010     47.311100000000003
H      45.473100000000002     43.836450000000006     46.376300000000001
H      42.831200000000003     43.468250000000005     49.353800000000000
H      52.677700000000002     49.902250000000002     45.632100000000001
H      51.128500000000003     53.322949999999999     49.373600000000003
H      50.349699999999999     49.615050000000004     45.651299999999999
H      48.859299999999990     53.192450000000001     48.766500000000001
H      54.335099999999997     51.236449999999998     46.864600000000003
H      53.852400000000003     52.765750000000004     48.678400000000003
H      48.573800000000006     52.415750000000010     46.905100000000004
N      43.548999999999999     49.347450000000002     46.833300000000001
O      44.676499999999997     51.421050000000001     47.883900000000004
