18

C      47.829300000000003     48.820799999999991     47.769649999999984
C      48.273000000000003     47.562399999999997     48.333950000000002
C      47.846200000000003     49.004400000000004     46.340249999999997
C      48.829600000000006     46.604300000000009     47.398849999999996
C      47.445700000000009     49.809700000000007     48.802250000000001
C      48.430500000000002     47.105800000000002     49.653750000000002
C      48.593499999999999     48.078000000000003     45.449849999999998
C      48.742300000000007     46.739900000000006     46.059550000000002
C      47.407800000000002     49.309700000000007     50.119550000000004
C      47.863400000000006     48.017400000000009     50.487250000000003
H      47.357000000000006     49.998500000000007     45.977649999999997
H      48.786500000000011     45.364300000000000     47.609349999999992
H      46.963600000000007     50.635700000000000     48.211349999999996
H      48.872500000000009     46.099100000000007     49.801450000000003
H      48.619900000000008     48.191800000000001     44.338949999999997
H      49.242899999999999     46.014300000000006     45.533349999999999
H      46.757100000000001     49.890600000000006     50.693849999999998
H      47.457400000000000     48.022000000000006     51.661050000000003
