6

C      47.977249999999998     48.682579999999994     48.295169999999999
C      47.962650000000004     47.522939999999998     47.385000000000005
H      47.973450000000007     49.606009999999998     47.617590000000000
H      47.373749999999994     48.738650000000000     49.257719999999999
H      47.404649999999997     46.393990000000002     47.654730000000001
H      48.626250000000006     47.197609999999997     46.742280000000001
