8

C      48.713599999999992     48.332399999999993     47.923849999999987
C      47.389600000000002     47.774400000000000     48.065849999999998
H      47.379199999999997     47.192900000000009     49.061750000000004
H      47.460900000000002     47.099400000000003     46.987150000000000
H      46.508499999999998     48.448400000000007     48.045050000000003
H      48.904800000000009     48.887799999999999     48.805549999999997
H      49.491500000000002     47.565799999999996     48.650550000000010
H      48.863500000000002     48.900599999999997     46.938249999999996
