18

C      47.154949999999992     48.238749999999996     48.060799999999993
C      48.710949999999997     48.125850000000000     47.870100000000001
C      46.522550000000003     48.247349999999997     46.911299999999997
C      49.381650000000008     48.303849999999997     46.655200000000001
C      46.753850000000000     48.051749999999998     49.477400000000003
C      49.455149999999989     48.250950000000003     49.059800000000010
C      47.282150000000001     48.378550000000004     45.691100000000006
C      48.587350000000001     48.333250000000007     45.439800000000005
C      47.551049999999996     48.021950000000004     50.557400000000001
C      48.901649999999989     47.625349999999997     50.224299999999999
H      45.478250000000003     48.510049999999993     47.147800000000004
H      50.488849999999999     48.519949999999994     46.610900000000001
H      45.689050000000002     47.655649999999994     49.465999999999994
H      50.521749999999997     48.526849999999996     48.668599999999998
H      46.441549999999999     48.650649999999999     44.943899999999999
H      49.143050000000002     48.142849999999996     44.457999999999998
H      47.125250000000001     48.005150000000000     51.542000000000002
H      49.446550000000002     47.349350000000001     51.083399999999997
