18

C      47.200049999999990     47.812649999999998     48.227099999999993
C      48.372350000000012     48.858850000000004     48.253499999999995
C      46.296150000000011     47.760350000000003     47.124400000000001
C      48.818050000000014     49.480150000000009     46.970700000000001
C      46.963150000000013     47.148050000000012     49.386599999999994
C      49.525150000000011     48.332450000000009     48.743800000000000
C      46.764150000000015     48.294550000000001     45.913199999999996
C      47.927750000000003     49.272850000000005     45.894599999999997
C      48.192150000000012     46.589150000000004     49.927100000000003
C      49.416150000000002     47.229350000000011     49.613599999999998
H      45.389049999999997     47.383050000000011     47.146899999999995
H      49.684050000000013     50.131250000000009     47.253999999999998
H      46.033950000000004     46.659050000000008     49.356100000000005
H      50.610950000000003     48.341550000000012     47.880800000000001
H      45.804349999999999     48.177750000000003     45.316799999999994
H      47.788250000000005     50.136949999999999     45.225400000000000
H      48.153450000000007     45.863050000000001     50.774600000000000
H      50.552850000000007     47.026750000000007     49.904599999999995
