18

C      48.280624999999993     48.395999999999994     48.783299999999997
C      48.158497000000004     48.683999999999997     47.330600000000004
C      48.802660000000003     47.289299999999997     49.453599999999994
C      48.993800000000007     47.715599999999995     46.537300000000002
C      47.360190000000003     49.209299999999999     49.502899999999997
C      47.193990000000007     49.509100000000004     46.693600000000004
C      49.577640000000002     46.552800000000005     48.504099999999994
C      49.934359999999998     46.870899999999999     47.097399999999993
C      46.218090000000011     49.704599999999999     48.794100000000000
C      46.187490000000018     50.132000000000005     47.498999999999995
H      48.783709999999999     47.081699999999998     50.499600000000001
H      49.113740000000007     48.085300000000004     45.500399999999999
H      47.924260000000004     48.908400000000000     50.429600000000008
H      47.237990000000018     49.800200000000004     45.785700000000006
H      50.049260000000004     45.616299999999995     48.679000000000002
H      50.756410000000002     46.330399999999997     46.532299999999992
H      45.272590000000001     49.772300000000001     49.281799999999990
H      45.243589999999998     50.383700000000005     47.159700000000001
