18

C      48.678249999999991     48.399699999999996     48.291699999999999
C      47.331849999999996     47.874099999999999     47.759399999999999
C      49.037950000000002     49.731399999999994     48.718800000000002
C      46.469249999999995     49.000100000000003     47.664000000000001
C      49.405250000000002     47.266899999999993     48.684700000000007
C      46.970750000000002     46.440299999999993     47.575199999999995
C      47.932650000000002     50.606899999999996     48.811199999999999
C      46.790050000000001     50.257800000000003     48.089200000000005
C      49.272849999999998     45.884100000000004     48.370300000000000
C      47.964950000000002     45.499300000000005     47.852300000000000
H      49.925850000000004     50.410799999999995     48.620999999999995
H      45.582249999999995     48.880399999999995     46.906999999999996
H      50.417750000000005     47.468199999999996     49.093000000000004
H      45.898550000000000     46.181500000000000     47.146699999999996
H      47.921950000000002     51.658699999999996     49.039400000000001
H      46.130150000000000     51.147400000000005     47.763999999999996
H      50.051749999999998     45.162599999999998     48.723100000000002
H      47.893750000000004     44.341300000000004     47.308900000000008
