59

C      47.302729999999997     46.341499999999996     48.191399999999987
C      47.800529999999995     47.787300000000002     48.185499999999998
C      51.733530000000002     45.058399999999992     46.871900000000004
C      48.137630000000001     45.036199999999994     47.960900000000002
C      49.087029999999999     47.812699999999992     47.629600000000003
C      50.436529999999991     44.373400000000004     47.081899999999997
C      51.260829999999999     46.506099999999989     46.941200000000002
C      49.371729999999999     45.179199999999994     47.288699999999999
C      49.821529999999996     46.624200000000002     47.348599999999998
C      45.848830000000007     46.403199999999998     48.392199999999995
C      45.287980000000005     47.464299999999994     48.991499999999995
C      46.143129999999999     48.615899999999996     49.631899999999995
C      47.365430000000003     48.982099999999988     49.110499999999995
C      44.870869999999996     45.184799999999996     47.857199999999999
C      43.404849999999996     45.332200000000000     48.056599999999996
C      43.173990000000003     46.609300000000005     48.605100000000000
C      43.977680000000007     47.693600000000004     48.997999999999998
C      48.011330000000001     44.217200000000005     49.049299999999995
C      45.288420000000002     44.283199999999994     46.998399999999997
C      47.181430000000006     44.689999999999998     50.260200000000005
C      49.903130000000004     42.927399999999992     47.114399999999996
C      44.476770000000002     43.040899999999993     47.140099999999997
C      53.001429999999999     44.228499999999997     46.723899999999993
C      47.614729999999994     50.756900000000002     45.852100000000000
C      46.266530000000003     50.447499999999991     45.480600000000003
C      48.272729999999996     52.005899999999997     46.303400000000003
C      45.412630000000007     51.573499999999996     45.935600000000001
C      48.301730000000006     49.444499999999991     45.920999999999999
C      46.142430000000004     49.051800000000000     45.130000000000003
C      47.368429999999989     53.006999999999991     46.572499999999998
C      45.948729999999998     52.777900000000002     46.487100000000005
C      49.484229999999997     49.178200000000004     46.873799999999996
C      47.403129999999990     48.573399999999992     45.248100000000001
H      49.677329999999998     49.986800000000002     47.686000000000000
H      49.997129999999999     42.249799999999993     47.855200000000004
H      51.781430000000000     47.361000000000004     46.787200000000006
H      45.549729999999997     49.209000000000003     50.367299999999993
H      48.289329999999993     49.438199999999995     49.104599999999998
H      42.684960000000004     44.526799999999994     47.872899999999994
H      42.054270000000002     46.502099999999999     48.606900000000003
H      43.551919999999996     48.749099999999999     49.271599999999999
H      49.014330000000001     43.883700000000005     49.586300000000001
H      46.327730000000003     44.149199999999993     46.555699999999995
H      46.140129999999999     44.827500000000001     50.238199999999999
H      48.699330000000003     42.935299999999998     47.218799999999995
H      44.805470000000000     41.985799999999998     46.445600000000006
H      43.341939999999994     43.318200000000004     46.606800000000000
H      44.653120000000001     42.675799999999995     48.262800000000006
H      53.450329999999994     43.649199999999993     47.560899999999997
H      53.945729999999998     44.566400000000002     46.013399999999997
H      52.682929999999999     43.468699999999998     46.109500000000004
H      49.306229999999999     52.311300000000003     45.995899999999999
H      44.494119999999995     50.875099999999989     46.132299999999994
H      50.449730000000002     49.174399999999991     46.315899999999992
H      45.442229999999995     48.439599999999999     44.764599999999994
H      47.737629999999996     54.014200000000002     46.662200000000006
H      45.127600000000001     53.421300000000002     46.650299999999994
H      47.572929999999999     47.512000000000000     45.044300000000000
O      47.812430000000006     44.989499999999992     51.235400000000006
