8

C      48.335899999999995     47.506599999999992     47.899399999999993
C      47.110500000000002     47.022099999999995     48.201800000000006
C      48.747999999999990     49.005600000000001     47.988199999999992
H      49.265599999999992     46.920000000000002     47.462100000000000
H      46.139600000000002     46.516599999999997     48.482900000000001
H      48.581199999999995     49.469600000000000     48.972200000000001
H      49.860399999999998     49.088800000000006     47.879000000000005
H      48.133099999999999     49.483400000000003     47.027799999999999
