5

C      48.383699999999990     48.061299999999989     47.469949999999983
H      48.823900000000002     48.969099999999997     47.582549999999991
H      47.176099999999998     48.194599999999994     47.329050000000002
H      48.779000000000003     47.030900000000003     47.437449999999991
H      48.490599999999993     47.738999999999990     48.670949999999998
