18

C      47.978004999999996     48.003349999999990     48.627932999999985
C      47.909244999999999     48.424049999999994     47.249755000000007
C      46.725805000000008     47.886949999999999     49.486404999999991
C      46.726555000000005     48.310050000000004     46.405254999999997
C      49.204965000000001     48.265950000000004     49.154764999999998
C      49.180295000000001     48.042550000000006     46.680555000000012
C      45.586565000000007     47.837450000000004     48.663941999999992
C      45.536455000000004     48.280850000000001     47.275154999999998
C      50.477715000000003     47.857249999999993     48.692702999999995
C      50.417625000000001     47.533550000000005     47.279855000000026
H      46.692335000000000     48.063350000000000     50.620144999999994
H      46.689875000000001     48.038849999999996     45.379855000000006
H      49.306794999999994     48.063950000000006     50.231935000000007
H      49.183405000000008     47.965450000000004     45.557955000000007
H      44.515834999999996     47.759550000000004     49.071173999999999
H      44.551564999999997     48.466449999999995     46.813155000000009
H      51.398714999999996     48.060450000000003     49.225018000000006
H      51.484165000000004     47.613950000000003     46.899455000000017
