18

C      47.548499999999997     48.351899999999986     47.773499999999991
C      48.463600000000000     47.295299999999997     48.163700000000006
C      47.129300000000001     49.442899999999995     48.525700000000001
C      48.853300000000004     47.549300000000002     49.460400000000000
C      47.105499999999999     48.242500000000007     46.418500000000002
C      49.052700000000002     46.325100000000006     47.125799999999998
C      47.409600000000005     49.446100000000001     49.787099999999995
C      48.280900000000003     48.466499999999996     50.342399999999998
C      47.608899999999991     47.299899999999994     45.484299999999998
C      48.712299999999999     46.394599999999997     45.803999999999995
H      46.430500000000002     50.217600000000004     48.120799999999996
H      49.508700000000005     46.793800000000005     49.750900000000001
H      46.381999999999998     49.042000000000002     46.191499999999998
H      49.618000000000002     45.525999999999996     47.553399999999996
H      47.128999999999998     50.474000000000004     50.346299999999999
H      48.497100000000003     48.460300000000004     51.516800000000003
H      47.422200000000004     47.696799999999996     44.483199999999997
H      49.083199999999991     45.792500000000004     45.084800000000001
