18

C      47.512799999999999     48.713199999999986     47.693199999999990
C      47.726799999999997     47.422999999999995     48.433099999999996
C      47.580900000000000     49.036399999999993     46.287599999999998
C      47.681899999999999     46.258000000000003     47.402799999999999
C      47.735099999999989     49.737299999999998     48.624800000000008
C      47.914899999999989     47.153299999999994     49.739300000000000
C      48.030100000000004     47.978599999999993     45.457200000000000
C      47.974599999999995     46.709699999999991     46.114000000000004
C      48.104600000000005     49.593799999999995     50.018600000000006
C      48.182699999999997     48.267400000000002     50.605000000000004
H      47.452799999999996     49.948199999999993     45.784700000000001
H      47.467399999999998     45.319099999999999     47.970600000000005
H      47.608699999999999     50.680900000000001     48.171800000000005
H      47.768900000000002     46.096499999999999     50.003600000000006
H      48.166599999999988     48.244300000000003     44.284999999999997
H      48.232099999999988     45.997999999999998     45.255400000000009
H      48.547200000000004     50.479499999999994     50.810800000000000
H      47.910699999999991     47.900100000000002     51.715000000000003
