18

C      48.084499999999991     47.376741999999986     47.431750000000001
C      47.683900000000001     48.704764999999995     48.001250000000006
C      47.097900000000003     46.381455000000010     47.319750000000006
C      46.429000000000002     48.694184999999990     48.622850000000007
C      49.381200000000000     47.269683999999998     46.931850000000004
C      48.789300000000004     49.419555000000003     48.649050000000017
C      45.760400000000004     46.780655000000024     47.461250000000007
C      45.425300000000000     47.773627000000005     48.373350000000002
C      50.517600000000009     48.090055000000000     47.296650000000007
C      50.049900000000001     49.265664999999998     47.957650000000008
H      47.375399999999999     45.575355000000002     46.575250000000004
H      49.670999999999999     46.312955000000017     46.491550000000004
H      48.722700000000010     50.424644999999998     49.212450000000004
H      44.530200000000001     47.816811999999999     48.941150000000007
H      46.358300000000000     49.277754999999999     49.508449999999996
H      51.469799999999999     47.884914999999992     47.761450000000011
H      50.697899999999997     50.009314999999994     48.352250000000012
H      44.855899999999998     46.111555000000003     47.047250000000005
