15

C      49.186929999999990     49.700265999999985     46.336299999999987
C      46.540379999999999     47.895744999999991     50.049499999999995
C      47.029460000000000     48.916645000000031     48.059500000000000
C      47.810030000000012     47.941845000000001     47.764699999999991
C      47.748130000000003     46.597044999999980     48.550100000000000
C      47.049170000000004     46.599145000000007     49.699199999999990
H      49.491830000000007     49.936684999999997     45.184600000000003
H      50.104230000000001     49.474131999999997     46.746399999999994
H      48.657130000000009     50.446254999999994     47.016399999999990
H      45.895769999999999     47.810245000000009     50.815399999999997
H      46.975230000000010     49.935846999999995     47.607900000000001
H      47.990430000000003     45.553745000000006     48.330100000000002
H      46.937510000000003     45.790145000000010     50.445300000000003
N      46.213990000000010     48.950645000000009     49.225700000000003
O      48.556830000000005     48.240945000000025     46.699299999999994
