20

C      49.004599999999982     50.668599999999984     49.626699999999992
C      48.116600000000005     49.601300000000002     49.458199999999991
C      47.755200000000002     49.014800000000001     48.260599999999997
C      48.451300000000003     49.252000000000002     47.147999999999996
C      49.540099999999995     50.285199999999996     47.217699999999994
C      49.977199999999996     50.730600000000003     48.430399999999992
C      46.480900000000005     48.129100000000001     48.709599999999995
C      48.196600000000004     46.394399999999997     49.144499999999994
C      47.045500000000004     46.819299999999991     48.681100000000001
H      50.355599999999995     49.546500000000002     45.378500000000003
H      46.813800000000001     44.469699999999996     49.460399999999993
H      49.255200000000002     50.744599999999998     50.621499999999997
H      47.698099999999997     49.455099999999995     50.324399999999997
H      47.847099999999998     48.792499999999997     46.236000000000004
H      50.736000000000004     51.530300000000004     48.203400000000002
H      48.953500000000005     47.050400000000003     49.207899999999995
H      46.536299999999997     45.910400000000003     48.407899999999998
O      45.263999999999996     48.301399999999994     48.691400000000002
S      48.352400000000003     44.635399999999997     49.203999999999994
S      50.281700000000001     50.812800000000003     45.672699999999992
