5

C      48.020449999999990     47.789049999999989     48.128299999999989
H      47.574849999999998     47.705050000000007     47.125799999999998
H      47.155450000000002     47.784749999999995     48.874200000000002
H      48.476550000000003     48.964750000000002     48.461399999999998
H      48.844549999999998     47.035249999999998     48.201300000000003
