46

C      44.835454999999996     49.983799999999995     47.180449999999993
C      49.606155000000001     48.013400000000004     51.788350000000001
C      46.066365000000005     49.240399999999994     46.554150000000000
C      49.602864999999994     47.408900000000003     50.436050000000002
C      44.320575000000005     50.058099999999996     48.493549999999992
C      48.398465000000002     48.843299999999999     52.094149999999992
C      46.858805000000004     48.581199999999995     47.594850000000001
C      48.804535000000001     47.697299999999998     49.402049999999996
C      45.145025000000004     49.553200000000004     50.862249999999996
C      46.144385000000000     49.184200000000004     51.691549999999999
C      45.335565000000003     49.565600000000003     49.444449999999996
C      47.463484999999991     48.713899999999995     51.314950000000003
C      46.683214999999990     49.024599999999992     48.972349999999999
C      47.702214999999995     48.664999999999992     49.783250000000002
C      47.790615000000003     47.603399999999993     47.190849999999990
C      48.745444999999989     47.033799999999999     48.051849999999995
C      44.260004999999992     50.633299999999991     46.099950000000000
C      45.477625000000003     49.795800000000000     44.387449999999994
C      46.185445000000001     48.774799999999999     45.277949999999997
C      46.800614999999993     47.525400000000005     44.772449999999999
C      47.814834999999988     47.103499999999997     45.637149999999998
C      50.639484999999993     47.719399999999993     52.786349999999992
C      51.594745000000003     46.845299999999995     52.182749999999992
C      51.553774999999987     46.141599999999997     50.940949999999994
C      50.326624999999993     46.069900000000004     50.189249999999994
C      50.562124999999995     45.599299999999999     48.814649999999993
C      49.585745000000003     45.849299999999999     47.794549999999994
C      48.904724999999999     46.201399999999992     45.369849999999992
C      49.591764999999995     45.521299999999997     46.365549999999992
C      46.176095000000004     49.818399999999997     43.010950000000001
H      43.325275000000005     50.601900000000001     48.705449999999992
H      48.238954999999990     49.063800000000001     53.119250000000001
H      44.174734999999998     50.022400000000005     51.229250000000000
H      46.058215000000004     49.117999999999995     52.799249999999994
H      43.391674999999992     51.219899999999996     46.435049999999997
H      46.716564999999989     47.448499999999996     43.798150000000000
H      50.616064999999992     48.096899999999991     53.741750000000003
H      52.674724999999995     46.654299999999992     52.608550000000001
H      52.389324999999999     45.612899999999996     50.736049999999999
H      49.056944999999999     46.116699999999994     44.285350000000001
H      45.900694999999985     50.739400000000003     42.258249999999997
H      50.967555000000004     44.780100000000004     45.122650000000000
H      51.435464999999994     45.103399999999993     48.374949999999991
N      44.552174999999991     50.534899999999993     44.775950000000002
O      47.153864999999996     49.168700000000001     42.766749999999995
O      50.728144999999998     44.867499999999993     46.080750000000002
