6

C      48.726749999999996     47.923549999999992     48.415099999999995
C      47.442149999999991     47.563750000000006     47.779899999999998
H      49.151549999999993     47.366149999999998     49.334699999999998
H      49.276750000000000     49.043349999999997     48.316699999999997
H      47.517449999999990     48.049950000000003     46.665300000000002
H      46.723250000000000     46.956650000000003     48.556599999999989
