44

C      48.188027999999989     47.780834999999996     48.128439999999991
C      48.511528000000006     47.170235000000005     49.422130000000010
C      44.521057999999996     44.899034999999998     48.022880000000001
C      47.114027999999998     47.256334999999993     47.200989999999997
C      47.428357999999996     46.277934999999999     50.004530000000003
C      45.293687999999996     45.502634999999998     46.963700000000003
C      44.914927999999996     45.541134999999997     49.217789999999994
C      46.303868000000001     46.204534999999993     47.722459999999998
C      46.241107999999997     45.984934999999993     49.214630000000000
C      49.247378000000005     48.422034999999994     47.497270000000000
C      50.506898000000000     48.941734999999994     48.136859999999999
C      51.069538000000001     47.917334999999994     49.032330000000002
C      49.915577999999989     47.260135000000005     49.621389999999998
C      48.800577999999994     49.364834999999999     46.380960000000002
C      49.614247999999996     50.396434999999997     46.093289999999996
C      50.860378000000004     50.698534999999993     46.558970000000002
C      51.336837999999993     49.809235000000001     47.558349999999997
C      46.776837999999998     48.118034999999992     46.043070000000000
C      47.632007999999999     49.026634999999999     45.568129999999996
C      51.798527999999997     51.808734999999999     45.989930000000001
C      45.598678000000000     45.231735000000000     45.494360000000000
C      52.397398000000003     47.257035000000002     49.091610000000003
C      43.371857999999996     44.122635000000002     47.384079999999997
C      52.793398000000003     49.637135000000001     48.114460000000001
H      52.478197999999999     51.755734999999987     45.150770000000001
H      47.632697999999998     45.916534999999996     51.077910000000003
H      44.542967999999995     45.245935000000003     50.139880000000005
H      50.157817999999999     46.338435000000004     50.511209999999991
H      49.270868000000000     50.841034999999991     45.107860000000002
H      44.856617999999997     44.396635000000003     44.922089999999997
H      45.696238000000001     48.276834999999991     45.448210000000003
H      47.447468000000001     49.964034999999996     44.970720000000000
H      46.650207999999999     45.088735000000000     45.259039999999999
H      45.623267999999996     46.221234999999993     45.072839999999999
H      52.932098000000003     47.070534999999992     47.967739999999999
H      52.219527999999990     46.218334999999996     49.292500000000004
H      53.087498000000004     47.979434999999995     50.068100000000001
H      43.497968000000000     43.823475000000002     46.354849999999999
H      43.142189999999999     43.423164999999997     48.198039999999992
H      42.538902000000000     44.917535000000001     47.213850000000001
H      53.248798000000001     50.603234999999998     48.109789999999997
H      52.889698000000003     49.310834999999997     49.170250000000003
H      53.461098000000000     49.348134999999999     47.521329999999999
O      52.268697999999993     52.576835000000003     46.752640000000000
