18

C      47.119349999999997     47.508599999999994     48.943099999999994
C      48.347650000000002     47.777100000000004     48.219300000000004
C      46.756249999999994     48.550399999999996     49.911699999999996
C      49.223349999999996     49.016599999999997     48.437200000000004
C      46.482450000000000     46.344200000000001     48.430399999999992
C      48.454250000000002     47.362700000000004     46.974999999999994
C      47.534250000000000     49.695400000000006     50.107699999999994
C      48.883449999999996     49.808999999999997     49.494199999999992
C      46.604950000000002     45.963799999999999     47.098500000000001
C      47.432050000000004     46.621800000000000     46.293899999999994
H      46.028049999999993     48.047300000000000     50.523699999999991
H      50.243449999999996     49.118600000000001     47.760700000000000
H      45.889049999999997     45.622799999999998     48.993499999999997
H      49.431249999999991     47.789200000000001     46.303200000000004
H      46.981049999999996     50.335700000000003     50.841300000000004
H      49.354550000000003     50.719999999999999     49.597600000000000
H      45.756550000000004     45.280000000000001     46.786900000000003
H      47.515450000000001     46.116399999999999     45.158699999999996
