73

C      46.348299999999995     47.651699999999991     47.820650000000001
C      47.586800000000004     46.416499999999999     46.010250000000006
C      48.286700000000003     47.643599999999992     45.322150000000001
C      46.334499999999998     51.309899999999999     47.507449999999999
C      46.647500000000001     46.430999999999997     47.120849999999997
C      48.108899999999998     49.001300000000001     45.396949999999997
C      45.863900000000001     50.249500000000012     48.239750000000008
C      47.387999999999998     50.976400000000012     46.640149999999998
C      46.546100000000003     49.092600000000004     47.658750000000005
C      47.362299999999998     49.505700000000004     46.481450000000002
C      48.044800000000002     45.095900000000000     45.937350000000002
C      49.149999999999999     44.915999999999997     45.063949999999998
C      49.609100000000005     45.936300000000003     44.248449999999998
C      49.085700000000003     47.314300000000003     44.241350000000004
C      47.303300000000000     43.875799999999998     46.673350000000006
C      47.750100000000003     42.526100000000000     46.316850000000009
C      49.071199999999997     42.413600000000002     45.571649999999998
C      49.710300000000011     43.539599999999993     45.090449999999997
C      46.773900000000005     44.259799999999998     47.991250000000001
C      46.491000000000007     45.539999999999992     48.269849999999998
C      45.657900000000005     45.891199999999998     49.353850000000001
C      45.358400000000003     50.569900000000004     49.623150000000003
C      48.203700000000005     51.838300000000004     45.568950000000008
C      47.535299999999999     51.992699999999999     44.276649999999997
C      46.975700000000003     53.453400000000002     43.661850000000008
C      48.008800000000001     54.630100000000013     44.004150000000003
C      46.217100000000002     52.844099999999997     47.337650000000004
C      46.210500000000003     43.133399999999995     48.953949999999999
C      49.717800000000004     41.105400000000003     45.073550000000004
C      47.850200000000001     50.247500000000002     51.113050000000008
C      48.528700000000008     50.819999999999993     52.253050000000009
C      46.705900000000007     51.013999999999996     50.386850000000003
C      48.305900000000001     52.165400000000005     52.828850000000010
C      47.938200000000002     48.891499999999994     50.836250000000000
C      49.871100000000006     50.496200000000002     52.487249999999996
C      45.424500000000002     47.232799999999997     48.828550000000000
C      48.250200000000000     53.243700000000004     53.309350000000002
C      49.034500000000001     48.252400000000009     51.509250000000002
C      49.997300000000003     49.102800000000002     52.152650000000001
H      44.965899999999998     45.304500000000004     49.985850000000006
H      48.772200000000005     49.664699999999996     44.734249999999996
H      49.571000000000005     48.154800000000009     43.793550000000003
H      50.374299999999998     42.966999999999999     44.432750000000006
H      44.738400000000006     47.738700000000009     49.430550000000004
H      44.933100000000003     51.621100000000013     49.474950000000000
H      44.581600000000002     49.810800000000000     49.594550000000005
H      48.313800000000001     51.799099999999996     43.392450000000004
H      46.399800000000006     51.575599999999994     44.316750000000006
H      47.639900000000004     40.629700000000000     46.352750000000007
H      51.418399999999998     44.732500000000002     43.594150000000006
H      45.988800000000005     53.419399999999996     44.037849999999999
H      47.155999999999999     53.400199999999998     42.457450000000001
H      47.749400000000001     55.653099999999995     43.776150000000008
H      48.470400000000005     54.699900000000000     45.062450000000005
H      48.756900000000002     54.239300000000000     43.376150000000003
H      45.574900000000007     53.119800000000012     46.460250000000009
H      45.387400000000007     53.270700000000005     47.932650000000002
H      47.158300000000004     53.321400000000011     47.019250000000007
H      46.875300000000003     42.209900000000005     48.903950000000002
H      45.310000000000002     42.834699999999998     48.522849999999998
H      46.179400000000001     43.425100000000000     49.952450000000006
H      49.224100000000000     40.346900000000005     45.819150000000000
H      49.849499999999999     41.095200000000006     43.987950000000005
H      50.783400000000007     41.575900000000004     44.879950000000001
H      46.813800000000001     52.094800000000006     50.171250000000008
H      48.369199999999999     54.463000000000008     53.542549999999999
H      47.408200000000001     48.360300000000009     50.048350000000006
H      50.658099999999997     51.152100000000004     52.919050000000006
H      49.484599999999993     47.403099999999995     51.128650000000000
H      51.038500000000006     48.789400000000001     52.301450000000010
O      48.996699999999997     52.587299999999999     46.092350000000003
O      47.230100000000000     41.364599999999996     46.738350000000004
S      50.930399999999999     45.769499999999994     43.069350000000007
