18

C      48.176499999999997     48.876389999999986     48.092100000000002
C      47.577600000000004     47.514669999999995     47.863100000000003
C      48.622600000000006     49.171989999999994     46.838700000000003
C      47.693300000000008     46.716260000000005     46.694800000000001
C      48.204499999999996     49.418989999999994     49.527999999999992
C      47.208600000000004     46.725269999999995     48.964799999999997
C      48.435299999999998     48.678160000000005     45.502200000000002
C      48.098399999999998     47.284239999999997     45.433999999999997
C      47.890299999999996     48.524339999999995     50.509100000000004
C      47.266800000000003     47.233509999999995     50.111499999999992
H      49.344300000000004     49.936390000000003     47.073599999999999
H      47.629900000000006     45.546809999999994     46.859399999999994
H      48.547200000000004     50.453190000000006     49.675100000000000
H      46.655699999999996     45.739589999999993     48.932999999999993
H      48.526100000000000     49.397989999999993     44.856700000000004
H      47.643000000000001     46.589070000000007     44.413200000000003
H      47.991900000000001     48.778220000000005     51.586799999999997
H      47.176600000000008     46.421220000000005     50.935400000000001
