67

C      46.547950000000000     41.259999999999991     46.258849999999988
C      46.645450000000004     53.444299999999991     49.962149999999994
C      45.967149999999997     42.661600000000000     45.632050000000000
C      46.647950000000002     52.889699999999998     51.357349999999997
C      47.141550000000002     41.157000000000004     47.544349999999994
C      46.888750000000009     52.722400000000000     48.697049999999997
C      46.027350000000006     43.812300000000000     46.470149999999997
C      46.651550000000007     51.398800000000001     51.332750000000004
C      48.458549999999995     42.395299999999999     49.011349999999993
C      48.843950000000000     43.582900000000002     49.860749999999996
C      46.951450000000001     50.425199999999997     47.563049999999997
C      46.449950000000008     49.066699999999990     47.552749999999996
C      48.068649999999998     45.771999999999998     50.559550000000002
C      47.296450000000000     48.308799999999998     50.959350000000001
C      46.356249999999996     46.056699999999999     48.061349999999997
C      47.466749999999998     42.459200000000003     48.041049999999998
C      46.897449999999999     51.335299999999997     48.670249999999996
C      47.967750000000002     44.783899999999996     49.737849999999995
C      47.262549999999997     47.055299999999995     50.263050000000007
C      46.940249999999999     43.807499999999997     47.591949999999997
C      46.804049999999997     50.758000000000003     50.073349999999991
C      46.453849999999996     48.546399999999998     48.849649999999997
C      47.153349999999996     44.834899999999998     48.425150000000002
C      46.404649999999997     47.055100000000003     49.083749999999995
C      46.724550000000001     49.329999999999991     50.098149999999997
C      45.447049999999997     45.122599999999998     46.129549999999995
C      45.388250000000006     46.224699999999991     47.010549999999995
C      46.169050000000006     40.333199999999998     45.285550000000001
C      45.486550000000001     40.496599999999994     44.028250000000000
C      45.083750000000002     41.748399999999997     43.626049999999999
C      45.342350000000003     42.911899999999996     44.338049999999996
C      44.982250000000001     44.260699999999993     43.848149999999997
C      44.787450000000000     45.206699999999991     44.887949999999996
C      46.925450000000005     54.786600000000000     49.657750000000000
C      46.950449999999996     55.699199999999998     50.776849999999996
C      46.522950000000002     55.171699999999994     51.971149999999994
C      46.786949999999997     53.745199999999990     52.429650000000009
C      49.471950000000000     41.328200000000002     48.966349999999991
C      50.588650000000008     41.360099999999996     49.900349999999996
C      50.825849999999996     42.404199999999996     50.861549999999994
C      49.591450000000002     43.166800000000002     51.026349999999994
C      47.290050000000001     51.090399999999995     46.321050000000000
C      46.592149999999997     50.734599999999993     45.140650000000001
H      47.284550000000003     40.607099999999996     48.568649999999998
H      46.967549999999996     53.190400000000004     47.792749999999998
H      46.940249999999999     50.851700000000001     52.167349999999999
H      46.113450000000007     48.658999999999999     46.697850000000003
H      48.075150000000001     48.698599999999992     51.543949999999995
H      44.989550000000001     47.157800000000002     46.950950000000006
H      46.761350000000000     39.315199999999997     45.438849999999995
H      45.406050000000000     39.771300000000004     43.050049999999999
H      44.595250000000000     41.922599999999996     42.566350000000000
H      44.805950000000003     44.400100000000002     42.818049999999999
H      44.247149999999998     46.110899999999994     44.348349999999996
H      47.406749999999995     54.903299999999994     48.628749999999997
H      46.365550000000006     56.684800000000003     50.909050000000008
H      46.044750000000001     55.834399999999995     52.779449999999997
H      47.132349999999995     53.687499999999993     53.433650000000000
H      49.554049999999997     40.696499999999993     48.233449999999998
H      51.612450000000003     40.929099999999998     49.706649999999996
H      51.752850000000002     43.163599999999995     51.112749999999998
H      49.269750000000009     43.588500000000003     52.141850000000005
H      48.477049999999998     46.374499999999991     52.393450000000001
H      47.991750000000003     52.081499999999998     46.115749999999998
H      45.852449999999997     49.856299999999997     45.309950000000001
H      46.950949999999999     51.383800000000001     44.247049999999994
O      48.565149999999996     45.752400000000002     51.785149999999987
