19

C      47.741399999999992     48.316149999999993     48.009499999999989
C      46.828099999999999     47.092549999999996     48.518299999999989
C      47.811399999999999     48.282649999999997     46.592500000000001
C      46.168399999999998     46.130949999999999     47.844799999999999
C      48.462400000000002     48.845750000000002     49.134699999999988
C      46.752899999999997     47.364649999999997     49.961099999999995
C      47.142699999999998     47.209049999999998     45.832299999999996
C      46.186100000000003     46.427050000000001     46.421799999999998
C      47.812399999999997     48.252050000000004     50.291599999999995
C      49.507599999999996     49.935250000000003     49.312900000000006
H      48.919899999999998     50.761249999999997     49.685899999999997
H      48.704400000000007     48.873150000000003     46.092399999999998
H      45.494799999999998     45.238750000000003     48.422699999999999
H      49.948900000000009     50.323450000000001     48.198000000000000
H      46.164700000000003     46.868850000000002     50.629999999999995
H      47.262599999999999     47.234850000000002     44.628200000000000
H      45.504500000000000     45.749050000000004     45.800899999999999
H      48.230400000000003     48.543250000000008     51.371800000000000
H      50.505200000000002     49.583649999999999     49.980899999999998
