18

C      48.336399999999998     47.281299999999987     48.105749999999993
C      48.073999999999998     48.719299999999997     47.830550000000002
C      49.504999999999995     46.387499999999996     48.000749999999996
C      49.322599999999994     49.363300000000002     47.712550000000000
C      47.098299999999995     46.485599999999998     47.905649999999994
C      46.704400000000007     49.085000000000001     48.065550000000002
C      50.757599999999996     47.152200000000001     47.863450000000000
C      50.471900000000005     48.538699999999999     47.766050000000000
C      45.903599999999997     46.924200000000006     48.034350000000003
C      45.606400000000008     48.302200000000006     48.247149999999991
H      49.628000000000000     45.436500000000002     48.106549999999999
H      49.445200000000000     50.563499999999998     47.431849999999997
H      47.242699999999999     45.553999999999995     47.656350000000003
H      46.688699999999997     50.250499999999995     48.000850000000000
H      51.533699999999996     46.665500000000002     48.302149999999997
H      51.394800000000004     48.945799999999998     48.034149999999997
H      45.124200000000002     46.005699999999997     48.001049999999999
H      44.466300000000004     48.551600000000001     48.568150000000003
