18

C      48.948149999999998     48.227849999999997     47.527699999999996
C      47.465750000000007     48.314650000000000     47.697399999999995
C      49.428050000000006     47.391649999999998     46.407400000000003
C      46.502950000000006     47.602750000000000     46.948399999999999
C      49.590349999999994     49.121449999999996     48.359500000000004
C      46.568850000000005     48.945949999999996     48.612400000000001
C      48.509650000000001     46.519950000000001     45.822799999999994
C      47.121450000000003     46.557650000000002     46.246699999999997
C      48.729750000000003     49.614549999999994     49.517900000000004
C      47.321549999999995     49.470050000000001     49.670799999999993
H      50.440649999999998     46.963250000000002     45.934999999999995
H      45.318649999999998     47.819450000000003     47.067599999999992
H      50.681350000000002     49.228750000000005     48.622800000000005
H      45.628449999999994     49.262749999999997     48.425499999999992
H      48.743450000000003     45.637950000000004     45.314600000000006
H      46.237850000000002     45.742150000000002     45.931999999999995
H      49.423549999999999     50.362049999999996     49.900200000000005
H      46.965650000000004     49.417249999999996     50.685399999999994
