37

C      48.487499999999990     47.596800000000002     47.496949999999984
C      48.836799999999997     47.679000000000009     46.068449999999999
C      50.154799999999994     51.939900000000002     47.549949999999995
C      48.865700000000004     48.557499999999997     48.456249999999997
C      49.615600000000001     48.740800000000000     45.438549999999992
C      49.554800000000000     51.014600000000009     48.517949999999999
C      50.288399999999996     51.242899999999999     46.394449999999992
C      49.423599999999993     49.730200000000004     47.873949999999994
C      49.895499999999998     49.796200000000006     46.378549999999990
C      47.888900000000007     46.399000000000008     47.986949999999993
C      47.430700000000002     45.384599999999999     47.021949999999990
C      47.553300000000007     45.580100000000009     45.636849999999995
C      48.175700000000006     46.757899999999999     45.196550000000002
C      48.196399999999997     46.068900000000006     49.366950000000003
C      47.855699999999999     44.685400000000008     49.741849999999999
C      47.209900000000005     43.772200000000005     49.030150000000006
C      46.781899999999993     44.129500000000000     47.668149999999997
C      48.606300000000005     47.114200000000004     50.321349999999995
C      48.795500000000004     48.371000000000002     49.896850000000001
C      45.882499999999993     43.255900000000004     46.826849999999993
C      47.397700000000000     42.295000000000009     49.207049999999995
C      49.908799999999999     53.317500000000003     47.038849999999996
H      50.108599999999996     48.536800000000007     44.550150000000002
H      48.837299999999999     51.376400000000011     49.325249999999997
H      50.650400000000005     51.590100000000000     45.300649999999990
H      47.213200000000001     44.836700000000000     44.800950000000000
H      48.352699999999999     46.602899999999998     43.960849999999994
H      48.370199999999997     44.296700000000008     50.702849999999998
H      49.050500000000000     49.228700000000011     50.549550000000011
H      45.349599999999995     43.664800000000007     46.064250000000001
H      47.727199999999996     41.606700000000011     48.369749999999996
H      48.702200000000005     45.873500000000000     52.039150000000006
H      49.862899999999996     54.410800000000002     47.587350000000001
H      50.451499999999996     53.421900000000001     45.966650000000001
O      46.268100000000004     42.128000000000007     46.634749999999997
O      47.461399999999998     41.589199999999998     50.187649999999991
O      48.662000000000006     46.743600000000008     51.600749999999991
