18

C      47.550454999999985     47.945499999999996     48.712799999999994
C      47.938684999999992     48.220699999999994     47.186000000000007
C      47.680665000000005     49.160799999999995     49.539199999999994
C      48.156684999999996     49.472799999999992     46.609700000000004
C      47.531265000000005     46.636499999999998     49.190299999999993
C      47.973585000000000     47.072199999999995     46.293599999999998
C      47.640304999999998     50.335300000000004     48.921999999999997
C      47.588904999999997     50.517699999999991     47.416399999999996
C      47.756465000000006     45.595200000000006     48.238799999999998
C      48.241985000000000     45.823799999999991     46.936899999999994
H      47.890585000000002     49.274999999999991     50.710800000000006
H      48.206585000000004     49.802799999999991     45.456999999999994
H      47.215814999999992     46.174999999999997     50.240200000000002
H      48.371285000000000     47.413200000000003     45.289199999999994
H      47.393524999999997     51.292400000000001     49.421499999999995
H      47.298005000000003     51.521299999999997     47.059899999999999
H      48.130685000000000     44.478700000000003     48.586100000000002
H      48.784185000000008     44.934600000000003     46.348299999999995
