21

C      50.880549999999985     47.600068999999991     45.934749999999994
C      47.271250000000002     48.581969000000001     48.084849999999996
C      48.351950000000002     47.969068999999990     48.790450000000000
C      47.429150000000000     49.098168999999999     46.809649999999998
C      49.698850000000000     48.052869000000001     48.250850000000000
C      45.826349999999998     48.625968999999998     48.404750000000000
C      47.862749999999998     47.639168999999995     50.174950000000003
C      48.578949999999999     48.713468999999989     46.113250000000001
C      49.675450000000005     48.179668999999990     46.794550000000001
C      45.422550000000001     48.150069000000002     49.643949999999997
C      46.547849999999997     47.524569000000000     50.358550000000001
H      51.119049999999994     46.519168999999991     46.208950000000002
H      50.865349999999999     47.597468999999990     44.832050000000002
H      51.623849999999997     48.514468999999991     46.162249999999993
H      46.629849999999998     49.480831000000009     46.252749999999999
H      50.786449999999995     47.969668999999996     48.930550000000004
H      45.110650000000000     49.277170100000006     47.815750000000001
H      48.629049999999999     47.339968999999996     50.980550000000001
H      49.024250000000002     49.121068999999991     45.182749999999999
H      44.376150000000003     48.329268999999996     49.984749999999998
H      46.042349999999999     46.817568999999992     51.167949999999998
