55

C      47.476999999999990     49.097824999999986     48.771349999999998
C      46.667299999999997     47.853061999999994     49.085550000000005
C      51.081400000000002     45.716405000000009     48.149149999999999
C      50.288799999999995     44.731204999999981     48.797550000000008
C      48.810400000000001     48.634214999999990     48.329349999999998
C      47.022599999999997     46.516005000000014     48.939050000000002
C      50.760600000000011     47.192866999999993     48.129650000000005
C      48.864099999999993     44.916304999999987     48.838950000000004
C      49.404400000000010     47.410206999999993     48.584650000000003
C      48.506000000000000     46.240405000000010     48.914850000000008
C      47.206699999999998     50.472064999999994     48.544249999999998
C      45.952100000000002     50.949745000000000     49.061250000000008
C      45.344700000000003     49.924744999999994     49.872149999999998
C      45.335099999999997     48.476304999999996     49.431149999999995
C      51.957400000000007     44.924104999999990     47.295650000000002
C      52.343000000000004     43.673004999999982     47.352249999999998
C      51.851299999999995     42.832105000000013     48.465250000000005
C      50.834699999999998     43.462704999999993     49.095949999999995
C      48.026200000000003     51.450144999999992     47.785750000000000
C      47.374899999999997     52.806525000000001     47.716550000000005
C      46.159999999999997     53.144474999999993     47.975150000000006
C      45.585399999999993     52.329444999999986     48.976250000000000
C      49.315800000000010     50.918804999999985     47.628750000000004
C      49.879800000000003     49.600014999999992     47.701749999999997
C      51.117900000000006     49.334634999999999     47.427350000000004
C      51.733599999999996     48.089564999999993     47.493650000000002
C      52.517600000000002     45.735804999999992     46.088650000000001
C      46.137100000000004     45.617604999999990     49.595149999999997
C      44.459500000000006     47.362734999999994     49.603249999999996
C      44.804800000000000     46.034805000000006     49.517350000000000
C      45.333799999999997     54.386944999999990     47.322550000000000
C      43.364499999999992     45.414305000000020     49.211250000000000
H      48.287700000000001     44.095904999999995     49.036350000000006
H      44.752899999999997     49.755354999999987     50.791649999999997
H      52.956800000000001     42.930804999999985     46.629649999999998
H      47.869100000000003     53.538904999999993     47.080249999999999
H      44.652500000000003     52.701924999999996     49.603850000000001
H      49.986499999999992     51.765864999999984     47.309249999999999
H      52.714000000000013     44.999204999999989     45.208350000000003
H      53.356700000000004     46.264005000000004     46.480249999999998
H      46.582099999999997     44.727605000000011     49.817950000000003
H      50.318700000000007     41.255204999999997     49.647950000000002
H      52.184600000000003     41.069105000000000     47.783049999999996
H      51.736999999999995     50.112604999999995     47.192550000000004
H      43.385199999999998     47.641811999999994     50.023450000000004
H      44.622900000000001     54.761715000000002     48.102750000000007
H      44.746099999999998     53.984204999999996     46.295950000000005
H      45.864000000000004     54.930895000000000     46.514850000000003
H      51.936599999999999     46.522205000000007     46.040250000000000
H      43.479699999999994     45.010705000000009     50.226649999999999
H      42.643299999999996     46.188205000000004     49.201249999999995
H      43.647800000000004     44.752804999999995     48.357949999999995
H      52.686900000000009     47.828506999999995     47.263750000000002
O      52.559899999999999     41.649004999999981     48.449649999999998
S      49.759399999999999     42.395105000000001     50.166550000000008
