18

C      48.830749999999995     47.389049999999997     47.886244999999988
C      47.524949999999997     48.019050000000000     47.903285000000004
C      49.101250000000000     46.901249999999997     49.150874999999992
C      46.652549999999998     47.959350000000008     48.939384999999994
C      49.723549999999996     47.525350000000010     46.747143199999996
C      47.387949999999996     48.840350000000008     46.683879499999996
C      48.257150000000003     47.102449999999997     50.367204999999991
C      46.829150000000006     47.501250000000006     50.252424999999995
C      49.428549999999994     48.087250000000004     45.608595000000001
C      48.162450000000000     48.808550000000004     45.570695000000001
H      50.010050000000000     46.345250000000000     49.382254999999994
H      45.459049999999998     48.354149999999997     49.039025000000002
H      50.540950000000002     46.918250000000008     46.941400999999999
H      46.530049999999996     49.654750000000000     46.745562699999994
H      48.903550000000003     46.758950000000006     51.228704999999998
H      46.060949999999998     47.453350000000007     50.975794999999998
H      50.355449999999998     48.202450000000006     44.771295000000002
H      47.884049999999995     49.415750000000010     44.834195000000001
