18

C      47.527264999999993     48.471415000000000     48.624807999999987
C      48.397835000000001     47.562315000000005     47.876505999999992
C      46.024945000000002     48.384815000000003     48.419543999999988
C      47.890195000000006     46.569715000000002     46.970765000000000
C      48.199915000000004     49.618815000000005     49.195014999999998
C      49.739724999999993     47.986215000000001     47.732708099999996
C      45.467235000000002     47.469915000000000     47.623964999999984
C      46.444685000000000     46.440615000000001     47.117265000000003
C      49.569125000000000     49.591314999999994     49.415684999999982
C      50.409725000000009     48.533815000000004     48.920034999999984
H      45.566125000000000     49.405315000000002     48.873534999999990
H      48.446714999999998     46.204315000000001     46.076365000000010
H      47.684934999999996     50.363114999999993     49.760624999999990
H      50.388125000000002     47.879114999999999     46.746865000000014
H      44.505674999999997     47.446315000000006     47.412765000000007
H      45.711685000000003     45.595185000000001     46.552964999999986
H      50.127524999999991     50.404814999999999     49.923634999999990
H      51.494325000000003     48.056115000000005     49.266714999999991
