18

C      47.902749999999990     48.544699999999992     48.196949999999987
C      48.270349999999993     47.385399999999997     47.446749999999994
C      48.677050000000008     49.473399999999991     48.968849999999996
C      49.771949999999997     47.442599999999992     47.161249999999995
C      46.486550000000001     48.533899999999996     48.841949999999990
C      47.306049999999999     46.770699999999998     46.575749999999992
C      50.053750000000008     49.220399999999991     48.760449999999999
C      50.497050000000002     48.472299999999997     47.662949999999995
C      45.594549999999998     47.835699999999996     48.155349999999991
C      45.938949999999998     46.995799999999996     46.938549999999999
H      48.090249999999997     50.191099999999999     49.421249999999993
H      50.130750000000006     46.566099999999999     46.773149999999994
H      46.071649999999998     49.089700000000001     49.796950000000002
H      47.558549999999997     45.808900000000001     46.203049999999998
H      50.734049999999996     49.834199999999989     49.444449999999996
H      51.466949999999997     48.696799999999989     47.445749999999997
H      44.533050000000003     47.860999999999997     47.920349999999992
H      45.094749999999998     46.247999999999998     46.746849999999995
