37

C      48.642499999999991     48.570499999999996     48.850249999999996
C      49.192799999999998     48.613399999999992     47.582350000000005
C      45.357099999999996     45.794999999999995     46.803450000000005
C      47.435800000000000     47.773800000000001     49.166349999999994
C      48.618200000000002     47.915299999999995     46.536950000000004
C      45.696299999999994     46.030399999999993     48.065550000000002
C      46.248199999999997     46.627000000000002     46.004950000000001
C      46.673599999999993     47.219400000000000     48.188750000000006
C      47.172499999999999     47.283799999999992     46.835550000000005
C      49.382300000000001     49.143599999999999     50.023350000000001
C      50.608400000000003     50.371000000000002     48.502750000000006
C      50.470799999999997     49.541000000000004     47.423450000000003
C      46.787599999999998     47.852899999999998     50.584750000000007
C      49.010999999999996     48.598400000000005     51.187450000000013
C      49.185099999999998     48.328200000000002     45.207550000000005
C      50.528199999999998     48.879100000000001     45.280250000000002
C      49.641499999999994     49.457599999999992     52.270950000000006
C      47.665999999999997     48.015399999999993     51.609850000000009
C      51.214100000000002     49.204000000000001     43.838050000000003
C      44.515699999999995     44.607399999999998     46.283550000000005
H      43.749099999999999     44.923200000000001     45.498950000000001
H      45.373699999999999     45.146200000000000     48.824450000000006
H      46.839500000000001     45.917399999999994     45.103250000000003
H      45.839799999999997     47.716100000000004     50.818250000000006
H      48.684799999999996     48.128700000000002     44.239550000000001
H      51.027699999999996     52.015200000000000     49.151250000000005
H      49.250099999999989     49.595800000000004     53.413449999999997
H      47.309299999999993     48.069499999999998     52.601849999999999
H      51.681599999999996     48.405499999999996     43.350250000000003
H      52.250900000000001     49.741599999999998     43.880150000000000
H      44.048299999999998     44.016900000000000     47.144750000000002
H      45.239799999999995     43.984800000000000     45.791450000000005
H      50.568299999999994     49.429600000000001     42.586550000000003
N      50.009699999999995     50.293299999999995     49.605950000000007
N      51.173999999999992     49.438099999999999     46.300050000000006
O      50.825999999999993     49.725199999999994     52.359250000000003
O      51.005499999999998     51.670600000000000     48.255750000000006
