18

C      47.490749999999991     47.939049999999995     48.737299999999991
C      47.622350000000004     48.435650000000003     47.265000000000001
C      47.199750000000002     48.986350000000002     49.727200000000011
C      48.534950000000002     49.469950000000004     47.106500000000011
C      47.381049999999995     46.611449999999998     49.158100000000005
C      47.075650000000003     47.568950000000001     46.287000000000006
C      48.087550000000000     50.072750000000006     49.484700000000018
C      48.882050000000000     50.230349999999994     48.302599999999998
C      46.917749999999998     45.902549999999998     47.976399999999998
C      46.727249999999998     46.271250000000002     46.644800000000004
H      46.352150000000002     49.061250000000008     50.594600000000000
H      49.093150000000001     49.510449999999999     46.264300000000006
H      47.354450000000000     46.166650000000004     50.325400000000002
H      46.970849999999999     47.932850000000002     45.405400000000000
H      48.261850000000003     50.975150000000006     50.163000000000011
H      49.647849999999998     51.175950000000000     48.236300000000000
H      46.675350000000002     44.824050000000000     48.299900000000008
H      46.493249999999996     45.429949999999998     45.904600000000002
