18

C      48.016099999999994     47.708249999999985     47.512049999999988
C      48.566899999999997     48.795249999999996     48.296849999999992
C      48.317000000000000     46.247349999999997     47.747249999999994
C      49.106200000000008     48.321950000000001     49.611849999999990
C      47.298299999999998     47.865049999999997     46.426749999999998
C      48.425699999999999     50.159449999999993     48.010949999999994
C      48.781200000000005     45.711349999999996     48.947850000000003
C      49.234900000000003     46.916150000000002     49.774550000000005
C      46.974200000000003     49.234349999999992     46.147649999999999
C      47.875799999999998     50.367549999999994     46.711050000000000
H      48.159700000000008     45.350349999999992     46.966650000000001
H      49.349100000000000     49.072649999999996     50.268950000000004
H      46.851700000000001     47.005349999999993     45.850650000000002
H      48.886699999999998     50.980350000000001     48.582549999999998
H      48.572699999999998     44.735849999999999     49.168350000000004
H      49.487000000000002     46.874049999999997     50.814850000000007
H      46.512999999999998     49.481949999999998     45.185149999999993
H      48.002000000000002     51.264150000000001     46.134850000000000
