18

C      48.540399999999991     47.801449999999988     48.274600000000000
C      47.138300000000001     47.675349999999995     47.915900000000008
C      49.763500000000008     47.020650000000003     48.187399999999997
C      47.047700000000006     46.870450000000005     46.791600000000003
C      48.767099999999999     48.984650000000002     49.125300000000010
C      46.076999999999998     48.423850000000002     48.302999999999997
C      49.620100000000008     46.493150000000000     46.887500000000003
C      48.201800000000006     46.156549999999996     46.531599999999997
C      47.735799999999998     49.790949999999995     49.620599999999996
C      46.429900000000004     49.709750000000000     48.998100000000008
H      50.594300000000004     47.269350000000003     48.790000000000006
H      46.226100000000002     46.673249999999996     46.349400000000003
H      49.816400000000002     49.092050000000000     49.531100000000009
H      45.405699999999996     48.472650000000002     47.359800000000007
H      50.395399999999995     46.161550000000005     46.216400000000007
H      48.070900000000009     45.307249999999996     45.644700000000000
H      47.933000000000007     50.692750000000004     50.355300000000000
H      45.527100000000004     50.374250000000004     49.375500000000002
