18

C      48.181349999999995     48.367799999999988     47.231549999999991
C      47.696350000000010     48.047799999999995     48.606750000000005
C      48.429749999999999     49.721199999999996     46.894150000000003
C      48.067650000000000     48.937899999999999     49.715549999999993
C      48.252750000000006     47.375500000000002     46.349850000000004
C      47.266550000000009     46.696100000000001     49.019150000000010
C      48.784450000000007     50.575699999999998     47.976450000000000
C      48.639350000000007     50.184200000000004     49.287750000000003
C      48.077950000000001     45.998199999999997     47.013249999999999
C      47.489050000000006     45.572800000000001     48.320749999999990
H      48.508250000000004     50.236300000000000     45.989649999999997
H      48.007750000000001     48.823200000000000     50.734349999999999
H      47.941150000000007     47.590400000000002     45.265650000000001
H      46.832250000000002     46.595699999999994     50.061450000000001
H      49.167749999999998     51.560900000000004     47.856850000000009
H      48.430450000000008     50.866700000000009     50.127450000000010
H      48.176850000000002     44.857200000000006     46.657950000000000
H      47.330950000000001     44.439099999999996     48.584550000000000
