18

C      48.750409999999988     48.727499999999992     48.149449999999987
C      48.488009999999989     47.298600000000000     48.207549999999991
C      48.167809999999989     49.731900000000003     48.985250000000001
C      47.436709999999991     46.895199999999996     48.902650000000001
C      49.115261000000004     49.355499999999999     46.862449999999995
C      49.306064999999990     46.560899999999997     47.167949999999998
C      47.145009999999985     49.199000000000005     49.807949999999998
C      46.542409999999990     47.883600000000008     49.659450000000000
C      49.884167999999988     48.661200000000001     46.030149999999999
C      50.147440000000003     47.264699999999998     46.208950000000002
H      48.809209999999993     50.561000000000000     49.573450000000001
H      47.107809999999986     45.858700000000006     48.852249999999991
H      48.583009999999987     50.235500000000009     46.563749999999999
H      49.507006999999987     45.439000000000000     46.929449999999996
H      46.869609999999994     49.462100000000000     50.938150000000000
H      45.774609999999996     47.293900000000001     50.087949999999999
H      50.126899999999992     49.151100000000007     45.124949999999998
H      50.225390000000004     47.035299999999999     45.061850000000000
