33

C      46.943599999999989     43.238699999999994     48.552549999999989
C      46.917400000000001     48.514299999999999     48.114149999999995
C      46.201899999999995     47.643499999999996     48.995350000000002
C      49.252800000000008     46.084499999999998     45.321549999999995
C      47.305300000000003     47.970499999999994     46.852149999999995
C      46.508600000000001     46.229499999999994     48.868449999999996
C      48.973500000000001     45.892400000000002     46.487949999999998
C      47.626300000000001     46.576900000000002     46.982849999999999
C      47.080900000000000     45.574099999999994     47.867149999999995
C      46.861100000000008     49.981099999999991     48.229649999999999
C      46.271400000000000     50.372599999999998     49.521650000000001
C      45.657399999999996     49.476700000000001     50.468550000000008
C      45.697100000000006     48.177699999999994     50.246749999999992
C      47.092900000000000     50.860199999999999     47.012049999999995
C      47.285600000000002     52.249299999999998     47.358750000000001
C      46.733699999999999     52.552999999999990     48.558549999999997
C      46.526799999999994     51.781399999999998     49.698549999999997
C      47.466100000000012     49.030600000000000     45.769349999999996
H      47.102600000000010     42.020800000000001     48.521850000000001
H      48.482699999999994     46.039099999999998     44.467449999999999
H      46.279600000000002     43.628399999999992     49.286950000000004
H      46.200299999999999     45.546399999999998     49.671549999999996
H      49.345200000000006     46.256899999999995     47.539349999999999
H      50.435100000000006     45.900900000000000     44.757249999999999
H      45.567700000000002     49.714799999999990     51.532550000000001
H      45.564899999999994     47.532199999999996     51.153149999999997
H      46.411900000000003     53.643200000000000     48.801849999999988
H      46.221800000000002     52.245100000000001     50.658749999999998
H      47.223300000000009     48.424999999999990     44.885549999999995
H      47.484000000000009     53.979199999999999     46.709350000000001
N      47.364000000000004     44.190999999999995     47.794750000000001
N      47.325800000000001     50.302399999999999     45.871249999999996
O      47.736599999999996     53.101399999999991     46.435249999999996
