18

C      47.395149999999994     48.191449999999989     47.868350000000000
C      48.857450000000000     47.898250000000004     47.581750000000000
C      46.520249999999997     47.213549999999998     48.386849999999995
C      49.337550000000000     46.539450000000002     47.656949999999995
C      47.035649999999997     49.568750000000009     47.684250000000006
C      49.576650000000001     49.139350000000007     47.710549999999998
C      46.924549999999996     45.801749999999998     48.264350000000007
C      48.170349999999999     45.661349999999999     47.609849999999994
C      48.008249999999997     50.458250000000007     48.239549999999994
C      49.333349999999996     50.375850000000000     47.976849999999999
H      45.325749999999999     47.433650000000000     48.682350000000000
H      50.429749999999999     46.205449999999999     47.817650000000000
H      45.885449999999999     49.534250000000000     47.780249999999995
H      50.674250000000001     48.975350000000006     47.558149999999998
H      46.497549999999997     44.851650000000006     48.495050000000006
H      48.372749999999996     44.539450000000002     47.317650000000000
H      47.651949999999999     51.460549999999998     48.225849999999994
H      50.022149999999996     51.212750000000000     47.903350000000003
