18

C      47.930027899999985     48.484699999999989     47.381099999999989
C      47.793415000000010     47.810799999999993     48.697900000000004
C      49.050844999999995     48.364600000000003     46.548600000000008
C      48.372123000000002     46.500700000000002     48.730600000000010
C      46.924115000000015     49.426899999999996     47.160399999999996
C      46.875315000000015     48.038300000000000     49.633800000000008
C      49.969454999999996     47.294599999999996     46.805900000000008
C      49.451484999999991     46.252400000000002     47.794400000000010
C      45.952415000000002     49.820799999999998     48.125900000000001
C      46.056414999999987     49.211800000000004     49.443700000000007
H      49.323634999999996     48.716500000000003     45.480800000000002
H      48.146595000000005     45.578399999999995     49.623699999999999
H      47.285014999999987     49.872099999999996     46.022900000000007
H      46.574215000000009     47.452700000000000     50.519199999999998
H      50.628285000000005     46.749199999999995     45.839100000000002
H      49.440455000000000     45.330199999999998     47.402200000000008
H      45.371714999999995     50.669800000000002     48.036699999999996
H      45.440814999999986     49.894200000000005     50.108600000000010
