20

C      46.732449999999993     50.187699999999992     48.859549999999992
C      48.058549999999997     46.607500000000002     47.075029999999998
C      49.797750000000008     47.734000000000002     46.385779999999997
C      48.062349999999995     49.024400000000000     47.144820000000003
C      47.254249999999999     47.683500000000002     46.969279999999998
C      47.294750000000008     45.742200000000004     47.964430000000000
C      47.635549999999995     50.172499999999999     47.614000000000004
C      45.674350000000004     47.631900000000002     47.022080000000003
H      47.413849999999996     49.704100000000004     49.815500000000000
H      46.350149999999999     51.228400000000001     49.248130000000003
H      45.912549999999996     49.494999999999997     48.419460000000001
H      50.928849999999997     47.841299999999997     46.184500000000000
H      47.424750000000003     46.104400000000005     49.046779999999998
H      45.440750000000008     46.502500000000005     47.031179999999999
H      48.355950000000007     51.106900000000003     47.307900000000004
H      45.352150000000009     48.276199999999996     47.897869999999998
H      45.071150000000003     48.397500000000001     46.323999999999998
N      49.300550000000001     46.548899999999996     46.520949999999999
N      49.278050000000007     48.907800000000002     46.877640000000000
O      46.601950000000002     44.771599999999999     47.591659999999997
