31

C      49.048699999999990     46.655999999999999     48.369099999999989
C      48.234800000000007     45.687300000000008     47.752999999999993
C      46.130099999999999     49.902299999999997     47.045299999999990
C      49.026600000000002     48.108400000000003     48.560200000000002
C      47.188400000000001     46.447600000000008     46.967899999999993
C      47.445599999999999     50.064900000000009     47.485899999999994
C      45.794300000000007     48.478099999999998     46.765399999999993
C      47.891800000000003     48.810400000000001     47.846799999999995
C      46.912099999999995     47.889099999999999     47.360599999999998
C      49.967600000000004     46.052400000000006     49.297999999999995
C      49.904200000000003     44.708799999999997     49.733299999999993
C      49.255099999999999     43.934899999999999     48.840699999999991
C      47.921499999999995     51.401100000000000     48.265200000000000
C      46.435600000000008     45.448000000000008     46.333800000000004
C      49.479100000000003     48.768000000000001     49.727799999999995
C      47.453800000000001     52.476100000000002     47.265799999999992
H      45.370400000000004     50.821899999999999     46.748799999999996
H      45.317999999999998     48.104399999999998     45.898400000000002
H      50.491500000000002     46.724199999999996     49.881700000000002
H      50.682000000000002     44.324399999999997     50.376600000000003
H      49.264399999999995     42.741000000000000     48.673899999999996
H      48.907899999999998     49.747500000000002     50.085400000000000
H      49.217399999999998     51.421300000000002     48.571999999999996
H      45.526499999999999     45.644999999999996     45.623399999999997
H      46.656800000000004     44.461799999999997     46.730299999999993
H      47.357200000000006     51.666899999999998     49.222500000000004
H      50.006799999999998     48.128799999999998     50.198100000000004
H      47.090400000000002     52.481200000000001     46.051799999999993
H      48.412999999999997     52.965199999999996     47.016399999999997
H      46.666799999999995     53.259000000000000     47.720099999999995
N      48.278599999999997     44.311400000000006     47.845300000000002
