18

C      48.201159999999987     47.893849999999993     48.724699999999991
C      47.311320999999992     48.176450000000003     47.565599999999989
C      48.059209999999993     46.508250000000004     49.256500000000003
C      46.709940000000003     47.042250000000010     46.897899999999993
C      48.656469999999999     49.005949999999999     49.539099999999991
C      46.938699000000000     49.595450000000000     47.233899999999991
C      47.315475999999990     45.441749999999999     48.599599999999995
C      46.725139999999996     45.755949999999999     47.376700000000000
C      48.404690000000002     50.230850000000004     49.099800000000002
C      47.547719000000001     50.603149999999999     48.025199999999998
H      48.715969999999999     46.117350000000002     50.133899999999997
H      46.466740000000016     47.099050000000005     45.866100000000003
H      49.726860000000002     48.651650000000004     49.981499999999997
H      46.547540000000012     49.896550000000005     46.168899999999994
H      47.477677000000000     44.300150000000002     48.729100000000003
H      46.273139999999998     44.842550000000003     46.934100000000001
H      49.244339999999994     50.788250000000005     49.452199999999991
H      47.190423999999993     51.699849999999998     47.840899999999991
