5

C      48.369299999999996     47.981989999999996     47.716799999999992
H      48.322200000000002     48.243539999999996     48.871699999999997
H      48.564500000000002     49.098209999999995     47.612100000000005
H      48.485400000000006     46.901790000000005     47.346100000000000
H      47.435499999999998     48.174369999999996     47.128300000000003
