18

C      47.473899999999993     48.257600000000004     48.624264999999994
C      48.809600000000003     47.724900000000005     48.242594999999994
C      47.257999999999996     49.619300000000010     48.172124999999994
C      49.501199999999997     48.144700000000000     47.020205000000004
C      46.689200000000000     47.276600000000002     49.354744999999994
C      49.274500000000003     46.484600000000000     48.687065000000004
C      48.259500000000003     50.290900000000008     47.272954999999996
C      49.373000000000005     49.593400000000003     46.800974999999994
C      47.051000000000002     45.952800000000011     49.725724999999997
C      48.472099999999998     45.676800000000000     49.485275000000001
H      46.247600000000006     50.277299999999997     48.083905000000001
H      50.271699999999996     47.755800000000008     46.332035000000005
H      45.706900000000005     47.673900000000003     49.705195000000003
H      50.293099999999995     46.108800000000002     48.472465000000000
H      48.072900000000004     51.287599999999998     46.980895000000004
H      49.832400000000007     50.426299999999998     46.274275000000003
H      46.124399999999994     45.435800000000000     49.570605000000000
H      48.989000000000004     44.712400000000002     49.668244999999999
