38

C      48.080599999999997     50.456350000000000     46.236199999999990
C      49.086500000000001     49.854850000000006     45.431200000000004
C      48.316200000000002     46.390950000000011     49.715100000000007
C      48.849600000000009     45.810250000000003     48.616299999999995
C      47.280600000000007     49.542850000000008     47.157100000000000
C      49.168000000000006     48.501350000000009     45.729399999999998
C      47.635300000000001     47.647849999999998     49.307800000000000
C      49.270500000000006     46.661250000000003     47.467600000000004
C      47.602200000000003     48.273450000000004     47.951899999999995
C      48.654600000000002     47.881350000000005     47.089600000000004
C      44.871900000000004     46.525250000000007     50.250200000000007
C      45.343300000000006     47.609749999999998     50.607100000000003
C      46.485300000000002     48.152850000000008     50.046099999999996
C      50.073600000000013     47.550750000000001     45.450299999999999
C      51.473000000000006     45.545150000000000     46.116900000000001
C      50.196700000000007     46.391150000000003     46.302000000000007
C      44.636400000000002     48.325650000000003     51.316800000000001
C      44.812400000000004     50.210749999999997     47.887100000000004
C      46.101400000000005     49.833750000000002     47.682299999999998
H      44.257200000000005     50.178850000000004     48.896799999999999
H      45.631700000000002     45.858449999999998     50.463899999999995
H      44.229100000000003     49.173549999999999     50.550399999999996
H      43.791700000000006     46.133950000000006     50.766800000000003
H      50.777799999999999     47.752950000000006     44.619799999999998
H      50.917100000000005     44.438650000000003     46.187899999999999
H      52.208299999999994     46.019750000000009     46.709599999999995
H      51.662499999999994     45.667250000000003     45.009500000000003
H      49.327300000000008     43.957349999999998     49.128600000000006
H      47.559300000000007     52.042650000000002     45.344300000000004
H      50.093900000000005     49.794150000000009     43.727999999999994
H      44.166200000000003     50.291950000000007     47.027900000000002
H      44.147500000000001     48.146050000000010     52.272000000000006
H      46.748700000000007     49.187550000000009     49.767399999999995
H      48.307500000000005     44.778050000000000     50.876599999999996
O      49.102800000000002     44.539549999999998     48.387699999999995
O      47.662600000000005     51.694650000000003     46.124800000000008
O      49.536300000000004     50.403650000000006     44.189099999999996
O      48.112200000000001     45.760550000000002     50.848500000000001
