18

C      48.281999999999996     47.864749999999994     47.280799999999992
C      47.386099999999999     48.159149999999997     48.576499999999996
C      47.698300000000003     46.814149999999998     46.471400000000003
C      46.243600000000001     47.450250000000004     48.783400000000000
C      49.346999999999994     48.641249999999999     46.965400000000002
C      47.641800000000003     49.455450000000006     49.069500000000005
C      46.375900000000001     46.232350000000004     46.656999999999996
C      45.853200000000001     46.395550000000000     47.957099999999997
C      49.871600000000001     49.560550000000006     47.977900000000005
C      49.087299999999985     49.801050000000004     49.106499999999997
H      48.510300000000001     46.091549999999998     46.567399999999999
H      45.551599999999993     47.631050000000002     49.668999999999997
H      49.682199999999995     48.618450000000010     45.924300000000002
H      46.772999999999996     49.727350000000001     49.811999999999998
H      45.715199999999996     45.715450000000004     45.863500000000002
H      45.033299999999997     45.807650000000002     48.272700000000000
H      50.966700000000003     49.643250000000009     47.719600000000000
H      49.373999999999995     50.284549999999996     50.136499999999998
