20

C      48.707399999999993     48.060649999999995     49.400849999999991
C      47.543799999999997     47.067250000000001     49.181649999999991
C      49.876500000000000     48.010750000000002     48.566749999999999
C      47.468899999999998     46.226750000000010     48.101349999999996
C      48.607400000000005     49.240450000000010     50.242949999999993
C      46.356100000000005     47.642050000000012     49.768449999999987
C      49.721499999999999     47.088850000000008     47.488749999999996
C      48.411400000000008     46.509650000000008     47.053249999999991
C      47.300800000000002     49.508950000000013     50.776649999999989
C      46.118299999999998     48.791950000000000     50.564149999999998
C      48.213900000000002     46.036750000000012     45.650649999999999
H      50.827800000000003     48.541450000000012     48.816149999999993
H      45.508400000000002     47.318150000000003     49.120350000000002
H      49.221899999999998     50.077550000000002     50.112649999999988
H      50.341799999999999     47.098950000000002     46.752549999999999
H      46.544000000000004     45.655850000000001     47.936349999999990
H      47.086800000000004     50.344149999999999     51.443950000000001
H      45.172199999999997     48.951250000000002     51.020150000000001
H      48.949400000000004     45.901949999999999     44.556049999999999
H      47.087200000000003     45.793050000000008     45.179349999999999
