6

C      47.952275000000000     48.546749999999989     48.451799999999992
C      48.340604999999996     47.587749999999993     47.506000000000007
H      47.466255000000004     49.364049999999999     47.972500000000004
H      48.225795000000005     48.599749999999993     49.582000000000001
H      48.533744999999996     46.635950000000001     47.662500000000001
H      48.275464999999997     47.911949999999997     46.417999999999999
