18

C      47.451605000000001     48.821599999999997     48.152399999999986
C      48.333655000000007     47.658200000000001     48.348499999999994
C      47.804954999999993     49.620500000000007     47.140700000000002
C      49.706055000000006     47.730700000000006     48.008699999999997
C      46.244635000000002     48.781300000000002     49.139400000000002
C      48.069365000000005     46.691100000000006     49.376500000000000
C      49.265325000000004     49.644200000000005     46.725500000000004
C      50.161025000000009     48.689400000000006     47.114500000000000
C      45.767735000000002     47.645000000000003     49.869999999999997
C      46.845035000000010     46.646400000000000     50.129799999999996
H      46.987255000000005     50.361599999999996     46.948100000000004
H      50.530295000000010     47.039100000000005     48.428400000000003
H      45.406955000000011     49.258100000000013     48.877099999999992
H      48.619915000000006     45.678700000000006     49.513299999999994
H      49.519035000000002     49.802200000000006     45.541199999999996
H      51.231084999999993     48.752000000000002     46.807300000000005
H      44.768915000000007     47.408600000000007     50.310300000000005
H      46.717224999999999     45.638400000000004     50.458800000000004
