18

C      47.381399999999985     47.670749999999991     47.532199999999996
C      48.288199999999996     48.504149999999996     48.330100000000002
C      47.768899999999995     47.301050000000004     46.203400000000002
C      49.741499999999995     48.691050000000004     47.963600000000000
C      46.269599999999990     47.281350000000003     48.255300000000005
C      47.862199999999994     49.073650000000001     49.572600000000008
C      48.957900000000002     47.917050000000003     45.702700000000007
C      49.893200000000000     48.653050000000007     46.605400000000003
C      45.933500000000002     47.820350000000005     49.605300000000000
C      46.772100000000002     48.720849999999999     50.302400000000006
H      47.253300000000003     46.471149999999994     45.888100000000009
H      50.378799999999991     49.278450000000007     48.464700000000008
H      45.408099999999997     46.743549999999999     47.693800000000010
H      48.661399999999993     49.528850000000006     50.132700000000000
H      49.321999999999996     47.760350000000003     44.663200000000003
H      50.922800000000002     48.763949999999994     46.133800000000008
H      45.077199999999998     47.518050000000002     50.027400000000000
H      46.575600000000001     49.038449999999997     51.336799999999997
