40

C      48.505699999999990     47.933049999999994     49.991599999999991
C      48.969499999999996     49.220550000000003     49.276000000000003
C      45.682800000000000     48.105750000000000     45.792099999999998
C      46.597600000000000     49.154750000000007     45.281599999999997
C      47.529799999999994     47.467550000000003     49.139999999999993
C      48.537300000000002     49.832850000000008     48.191499999999998
C      45.686800000000005     47.538350000000008     47.131599999999999
C      47.383399999999995     49.749150000000000     46.189500000000002
C      46.825800000000001     48.025450000000006     47.989399999999996
C      47.363500000000002     49.222350000000006     47.549799999999998
C      49.505900000000011     47.111050000000006     50.727699999999992
C      50.636899999999997     47.974750000000000     51.236699999999999
C      51.099500000000006     49.197050000000004     50.567299999999996
C      50.154899999999998     49.959350000000015     49.949800000000003
C      44.402799999999999     48.043350000000004     45.071899999999999
C      44.676900000000003     47.753250000000008     43.677500000000002
C      45.809899999999999     48.511950000000013     43.145099999999999
C      46.631699999999995     49.361149999999995     43.848499999999994
C      48.776400000000010     46.163449999999997     51.479499999999994
C      49.238500000000002     45.911550000000005     52.786600000000000
C      50.559100000000001     46.292249999999996     53.052699999999994
C      51.307600000000008     47.365449999999996     52.370799999999996
C      47.730699999999999     45.433850000000007     50.795799999999993
C      47.342699999999994     46.082650000000001     49.553800000000003
C      44.708500000000001     46.719650000000001     47.740000000000002
H      49.109200000000001     50.754750000000001     47.498699999999999
H      48.175600000000003     50.579650000000015     46.011499999999998
H      52.124300000000005     49.707450000000009     50.619099999999996
H      50.396000000000001     50.944850000000002     49.752599999999994
H      43.515799999999999     47.937750000000008     45.574499999999993
H      43.871899999999997     47.227649999999997     42.903399999999998
H      45.928299999999993     48.579450000000008     42.074800000000003
H      47.239900000000006     50.134150000000005     43.302500000000002
H      48.612399999999994     45.143150000000006     53.311699999999995
H      51.007999999999996     45.754450000000006     53.925199999999997
H      52.484200000000001     47.344250000000002     52.739100000000001
H      46.748400000000004     45.836150000000004     48.709499999999998
H      46.819999999999993     45.055149999999998     51.363099999999996
H      44.694400000000002     46.456550000000007     48.975400000000000
H      43.888300000000001     46.302949999999996     47.286700000000003
