18

C      47.884549999999990     48.455449999999992     48.355099999999993
C      48.753850000000007     47.555650000000000     47.527100000000004
C      46.772150000000003     49.100849999999994     47.676699999999997
C      48.385650000000005     47.302549999999997     46.216700000000003
C      48.017450000000004     48.279150000000001     49.753300000000010
C      49.694049999999997     46.727750000000000     48.231999999999999
C      46.560250000000003     48.739949999999993     46.258700000000005
C      47.369750000000003     47.996549999999999     45.464299999999994
C      48.696850000000005     47.371150000000000     50.504199999999997
C      49.727150000000002     46.728650000000002     49.665599999999998
H      46.173250000000003     49.893850000000000     48.291399999999996
H      49.007650000000005     46.543149999999997     45.868700000000004
H      47.400449999999999     49.225049999999996     50.122100000000003
H      50.426549999999999     46.187249999999992     47.469899999999996
H      45.455949999999994     49.119050000000001     46.052900000000008
H      46.962550000000000     47.996949999999998     44.493099999999998
H      48.764850000000003     47.570149999999998     51.506900000000002
H      50.544050000000006     46.106150000000000     50.233000000000004
