11

C      48.424399999999999     48.649899999999995     49.026544999999999
C      47.630000000000010     47.598399999999998     48.387394999999998
C      47.723200000000006     47.757199999999997     46.887524999999997
H      49.283400000000000     47.987399999999994     49.557214999999999
H      48.984300000000005     49.266700000000000     48.261804999999995
H      47.959600000000009     49.521299999999997     49.511685000000000
H      46.716600000000000     47.858599999999996     48.959975000000000
H      47.953200000000010     46.478700000000003     48.634794999999997
H      47.981600000000000     46.863299999999995     46.442785000000001
H      47.150500000000008     48.660699999999991     46.570494999999994
H      48.595500000000001     48.429699999999997     46.620864999999995
