57

C      49.281925000000001     49.187824999999989     48.058399999999992
C      48.852334999999997     47.959094999999991     47.583900000000000
C      44.652344999999997     50.603644999999986     48.187200000000004
C      48.602005000000005     50.450215000000000     48.291300000000007
C      47.467915000000005     48.102914999999996     47.246899999999997
C      45.961255000000008     51.177704999999989     48.504800000000003
C      45.102955000000009     49.473864999999989     47.502300000000005
C      47.103594999999999     50.483664999999988     48.114600000000010
C      46.573135000000008     49.306474999999992     47.431700000000006
C      50.565624999999997     48.854225000000000     48.647199999999998
C      51.510024999999999     47.593004999999991     48.535300000000007
C      51.326925000000003     46.831885000000000     47.393900000000002
C      49.970115000000007     47.017964999999990     47.082400000000007
C      51.378225000000000     50.006594999999990     48.789400000000001
C      52.677025000000000     50.159674999999993     49.373500000000007
C      52.595025000000007     48.894004999999993     50.032499999999999
C      52.516424999999998     47.549494999999993     49.452500000000001
C      50.951925000000003     51.347964999999988     48.432000000000002
C      49.608685000000008     51.439304999999990     48.268000000000001
C      48.821455000000000     52.722694999999987     48.045200000000008
C      46.048344999999998     52.339275000000001     49.420200000000008
C      46.801845000000000     46.958624999999998     46.520300000000006
C      46.559455000000000     45.605072999999990     46.870000000000005
C      49.722875000000002     46.188584999999989     45.790300000000002
C      47.168585000000007     44.494755000000012     47.690100000000001
C      44.459964999999997     48.431145000000001     46.551000000000002
C      47.141024999999999     43.003755000000012     47.307400000000001
C      43.371575000000007     50.885224999999991     48.950900000000004
H      47.323845000000006     52.376255000000000     49.762500000000003
H      48.328045000000003     44.794155000000018     48.023800000000008
H      48.999075000000005     53.500364999999988     47.194600000000008
H      53.098524999999995     48.947244999999995     51.021100000000004
H      53.269225000000006     46.848894999999999     49.545600000000007
H      51.418424999999999     52.313604999999995     48.231600000000000
H      49.167135000000002     53.600245000000001     48.786799999999999
H      47.789375000000007     52.622884999999982     47.721200000000010
H      45.849604999999997     53.532685000000001     49.356500000000011
H      45.389105000000001     52.388534999999990     50.249700000000004
H      46.721625000000003     47.106524999999991     45.454700000000003
H      49.458635000000001     45.270322999999991     46.533100000000005
H      45.656885000000003     45.580179999999999     46.315700000000007
H      49.148395000000008     46.817144999999996     44.978899999999996
H      50.584125000000000     45.719093999999998     45.093299999999999
H      52.820625000000007     51.954134999999994     49.205200000000005
H      53.088724999999997     45.271435999999994     47.035499999999999
H      46.885585000000006     44.591754999999992     48.877700000000004
H      43.422854999999998     48.713384999999988     46.305700000000002
H      45.232034999999996     48.291984999999997     45.642700000000005
H      44.343795000000000     47.355795000000001     47.121400000000008
H      47.896365000000003     42.909054999999981     46.624700000000004
H      47.540615000000003     42.399754999999999     48.112300000000005
H      46.261835000000005     42.511755000000008     46.864600000000010
H      42.565375000000003     51.308524999999989     48.171300000000002
H      43.595695000000006     51.516414999999995     49.859900000000010
H      42.879554999999996     50.112524999999991     49.299100000000010
O      53.434624999999997     51.273195000000001     49.729900000000001
O      52.046925000000002     45.767928999999995     46.938900000000004
