18

C      48.809049999999999     48.453649999999989     47.893249999999995
C      47.887449999999994     47.451849999999993     48.247949999999989
C      48.971350000000008     49.721549999999993     48.610649999999993
C      47.507449999999999     47.495649999999998     49.597749999999991
C      48.948349999999998     48.374150000000000     46.371650000000002
C      47.392749999999999     46.424949999999995     47.248249999999999
C      48.945249999999994     49.527050000000003     49.967549999999989
C      47.830249999999999     48.638249999999999     50.368549999999999
C      48.816350000000007     47.154550000000000     45.640949999999989
C      48.011249999999997     46.072249999999997     46.146949999999990
H      49.374249999999996     50.794849999999997     48.086849999999998
H      46.619250000000001     47.107050000000001     50.237249999999989
H      49.341649999999994     49.423450000000003     46.052049999999994
H      46.966850000000001     45.781549999999996     47.998649999999984
H      49.165150000000004     50.402550000000005     50.558249999999987
H      47.475450000000002     48.687849999999997     51.405150000000006
H      49.380749999999999     47.040949999999995     44.594849999999994
H      47.869149999999998     45.205150000000003     45.484049999999996
