18

C      47.478901499999992     47.955199999999991     48.538849999999982
C      48.333901500000010     48.162800000000004     47.334549999999993
C      47.553701500000003     48.865200000000002     49.694249999999997
C      48.984401500000004     49.321899999999999     47.051649999999995
C      46.861074500000001     46.692200000000000     49.002350000000007
C      48.340231500000002     47.107799999999997     46.339149999999989
C      48.102431500000009     50.082300000000004     49.207449999999994
C      48.800101500000011     50.330299999999994     48.032150000000001
C      47.376361500000002     45.746700000000004     48.159449999999993
C      48.060441499999996     45.850700000000003     46.873249999999999
H      47.179201500000005     48.640600000000006     50.664150000000006
H      49.428531500000005     49.083700000000007     46.113749999999996
H      46.571468499999995     46.483400000000003     49.935649999999995
H      48.555021500000009     47.309200000000004     45.335849999999994
H      48.696861500000011     50.979799999999997     50.000549999999990
H      49.357911500000000     51.253699999999995     47.872649999999993
H      47.152071500000005     44.746300000000005     48.359049999999996
H      48.275661500000012     44.968500000000006     46.302349999999990
