67

C      52.026349999999994     45.699099999999994     53.335249999999988
C      51.098950000000002     46.771500000000003     53.962649999999996
C      48.697749999999999     49.633399999999995     44.663849999999996
C      47.698850000000007     48.882800000000003     44.151049999999998
C      50.091050000000010     48.802099999999996     51.932149999999993
C      46.176349999999999     44.824199999999990     47.613450000000000
C      49.858249999999998     49.092500000000001     45.420150000000007
C      49.647750000000002     47.553100000000001     52.238849999999999
C      46.703150000000008     44.768699999999995     48.866749999999996
C      47.110349999999997     47.850499999999997     44.954149999999998
C      46.345550000000003     45.888899999999992     46.790850000000006
C      48.259950000000003     45.837999999999994     50.569249999999997
C      49.995950000000008     48.347399999999993     47.697549999999993
C      49.037750000000003     46.971000000000004     50.867649999999998
C      49.247150000000005     48.414800000000000     46.417850000000001
C      47.667950000000005     45.813599999999994     49.268550000000005
C      47.980150000000009     47.726100000000002     46.134749999999997
C      49.412750000000003     47.999799999999993     50.016750000000002
C      47.387050000000002     46.727800000000002     47.023749999999993
C      49.188150000000007     47.649100000000004     48.593450000000004
C      48.156850000000006     46.650599999999997     48.214550000000003
C      46.526550000000000     46.658999999999992     44.294049999999999
C      45.950749999999999     45.862499999999997     45.370950000000008
C      49.061050000000009     50.917800000000000     44.065650000000005
C      48.649450000000002     50.969600000000000     42.664150000000006
C      47.577849999999998     50.166799999999995     42.117450000000005
C      47.205950000000001     48.936199999999999     42.740250000000003
C      46.575450000000004     47.836199999999991     42.106549999999999
C      46.524650000000008     46.549199999999999     42.847750000000005
C      51.250749999999996     49.646500000000003     45.333749999999995
C      51.372450000000001     50.679900000000004     44.147450000000006
C      50.208250000000007     51.768999999999991     44.483149999999995
C      45.101849999999999     43.999399999999994     46.689250000000001
C      44.911150000000006     44.062399999999997     43.840150000000008
C      45.172950000000000     44.747299999999996     45.364249999999998
C      49.297950000000000     52.146900000000002     41.846649999999997
C      49.631950000000003     46.923900000000003     53.640750000000011
H      51.870649999999998     44.788200000000003     53.871150000000000
H      52.391150000000010     46.034499999999994     52.482249999999993
H      51.599750000000000     47.774699999999996     54.140050000000002
H      50.926450000000003     46.792699999999996     55.051950000000005
H      52.951149999999998     45.911099999999990     53.971450000000004
H      50.511250000000004     49.444800000000001     52.719750000000005
H      48.091450000000009     45.040199999999999     51.351349999999996
H      51.007350000000002     48.916499999999999     47.947749999999999
H      47.554850000000002     49.995599999999996     40.948049999999995
H      46.183750000000003     47.854299999999995     41.080250000000007
H      45.840750000000000     45.810400000000001     42.257149999999996
H      51.356350000000006     49.866399999999999     46.472149999999999
H      51.875450000000001     48.670000000000002     45.045450000000002
H      52.357450000000014     51.290899999999993     44.327650000000006
H      51.142850000000010     50.540700000000001     43.024349999999998
H      50.360150000000004     51.887199999999993     45.587050000000005
H      50.460549999999998     52.614499999999992     43.762850000000000
H      44.283150000000006     44.716499999999996     43.231949999999998
H      45.695949999999996     43.107399999999998     47.026049999999998
H      45.927650000000000     43.864199999999997     43.351150000000004
H      44.462050000000005     43.152000000000001     44.086650000000006
H      48.290950000000009     52.892600000000002     42.081550000000007
H      49.538950000000000     47.769999999999996     54.388850000000005
H      49.206350000000000     45.842500000000001     53.713250000000002
H      43.048850000000002     44.408900000000003     47.938149999999993
H      47.004249999999999     43.773299999999992     50.645650000000003
N      49.709750000000000     49.132899999999992     50.589050000000000
O      50.323650000000001     51.891999999999996     41.236750000000001
O      46.525350000000003     43.752899999999997     49.749349999999993
O      43.545950000000005     43.973900000000000     47.051550000000006
