18

C      48.420849999999994     48.408849999999987     47.504849999999990
C      47.545450000000002     47.541150000000002     48.379550000000002
C      49.509850000000000     47.658549999999991     46.872849999999993
C      47.899850000000001     46.186549999999997     48.720049999999993
C      48.219350000000006     49.802549999999997     47.556649999999998
C      46.606750000000005     48.270449999999997     49.073549999999990
C      49.937049999999999     46.370649999999998     47.199649999999998
C      49.088949999999997     45.697450000000003     48.225249999999996
C      46.948549999999997     50.283050000000003     47.919149999999995
C      46.132750000000001     49.603549999999998     48.774449999999995
H      50.365150000000000     48.221649999999997     46.145750000000000
H      47.333950000000002     45.850149999999999     49.621649999999995
H      48.990349999999992     50.372850000000000     47.093049999999998
H      45.782550000000001     47.842349999999996     49.854250000000000
H      50.882850000000005     45.954849999999993     46.816649999999989
H      49.409949999999995     44.676149999999993     48.431549999999994
H      46.553250000000006     51.323850000000007     47.393949999999997
H      45.117149999999995     50.120249999999999     49.186850000000000
