18

C      48.739999999999995     47.317149999999991     48.282199999999996
C      47.797699999999999     48.378149999999991     47.823400000000007
C      49.657699999999998     47.320149999999998     49.431100000000001
C      48.140999999999998     49.503749999999997     48.645799999999994
C      48.632100000000001     46.208649999999999     47.377499999999998
C      46.630000000000003     48.001949999999994     47.015200000000007
C      49.918300000000002     48.654250000000005     49.807500000000005
C      49.277400000000000     49.783549999999998     49.481899999999996
C      47.710299999999997     46.095950000000002     46.251800000000003
C      46.432499999999997     46.655549999999998     46.540899999999993
H      50.216500000000003     46.492249999999999     49.498199999999997
H      47.191600000000001     50.015649999999994     48.913899999999998
H      49.226199999999999     45.376249999999999     47.410600000000002
H      45.870500000000000     48.646050000000002     46.761799999999994
H      50.655200000000001     48.630549999999999     50.561999999999998
H      49.756599999999999     50.667850000000001     49.773700000000005
H      47.975200000000001     45.332149999999999     45.438000000000002
H      45.344799999999999     46.194350000000000     46.017600000000002
