5

C      48.127799999999993     47.959399999999988     47.968449999999983
H      47.181500000000000     47.917599999999993     48.485450000000000
H      48.818500000000000     47.574200000000005     48.742249999999999
H      48.646500000000003     48.905500000000004     47.556449999999998
H      48.436299999999989     47.094499999999996     47.257750000000001
