18

C      47.385999999999996     47.673599999999993     48.189799999999998
C      48.531099999999995     48.138100000000001     47.391400000000004
C      47.563199999999995     46.708999999999996     49.331900000000005
C      49.834800000000001     47.739399999999996     47.957300000000004
C      46.237200000000001     48.395999999999994     48.040700000000008
C      48.517099999999999     49.186199999999992     46.387200000000007
C      48.716699999999989     46.241799999999991     49.769200000000012
C      49.865099999999998     46.659900000000000     48.933100000000010
C      46.117999999999995     49.390300000000003     46.952600000000004
C      47.222099999999998     49.652300000000004     46.107800000000005
H      46.564099999999996     46.564799999999998     49.946700000000007
H      50.843599999999995     47.731400000000001     47.436300000000003
H      45.522599999999997     48.395000000000003     48.833700000000007
H      49.286100000000005     49.382199999999990     45.720500000000008
H      48.552599999999998     45.707900000000002     50.678799999999995
H      50.880499999999998     46.461300000000001     49.102000000000004
H      45.119500000000002     49.823999999999991     46.619800000000005
H      47.082499999999996     50.292099999999998     45.321200000000005
