18

C      49.003399999999992     48.476749999999988     47.636899999999997
C      47.603000000000002     48.819850000000002     48.346999999999994
C      48.720100000000002     48.526949999999999     46.274699999999996
C      46.228000000000002     48.994050000000001     47.927999999999997
C      50.000099999999989     47.663749999999993     48.131599999999992
C      47.733199999999997     48.709249999999997     49.672799999999995
C      47.555100000000003     49.265349999999998     45.899600000000007
C      46.270600000000002     48.810850000000002     46.486599999999996
C      49.825699999999998     47.257350000000002     49.483899999999991
C      48.913699999999999     47.996249999999989     50.182999999999993
H      49.338799999999992     48.198149999999998     45.386300000000006
H      45.392099999999999     48.175449999999998     48.095799999999997
H      50.607900000000001     47.242549999999994     47.410700000000006
H      46.941699999999997     48.698250000000002     50.284800000000004
H      47.401400000000002     49.494850000000000     44.967100000000002
H      45.393000000000001     48.974949999999993     45.733900000000006
H      50.604500000000002     46.505150000000000     49.942899999999995
H      49.222900000000010     48.506249999999994     51.032899999999998
