5

C      48.100999999999999     48.146199999999993     48.374199999999995
H      47.061600000000006     48.144800000000004     48.681899999999999
H      48.938399999999994     48.872799999999998     48.659599999999998
H      48.611800000000009     47.127200000000002     48.469300000000004
H      48.306200000000011     47.699600000000004     47.318100000000001
