18

C      47.834599999999995     48.727349999999994     48.011049999999990
C      48.130599999999994     47.263550000000002     47.885249999999999
C      48.847000000000001     49.652150000000006     48.410049999999998
C      49.445299999999996     46.855950000000007     48.293549999999996
C      46.444300000000005     49.057550000000006     47.657950000000000
C      46.991800000000005     46.325350000000000     47.890049999999995
C      50.225100000000005     49.236950000000007     48.605750000000000
C      50.261199999999995     47.835950000000004     48.721649999999997
C      45.579799999999999     48.027749999999997     47.190249999999992
C      45.859500000000004     46.639450000000004     47.175449999999998
H      48.484199999999994     50.833550000000002     48.388649999999998
H      49.546799999999998     45.685250000000003     48.241749999999996
H      46.141399999999997     50.150549999999996     47.534149999999997
H      47.256800000000005     45.166449999999998     48.240849999999995
H      51.033400000000007     49.821749999999994     49.081850000000003
H      51.361799999999995     47.482950000000002     48.848549999999989
H      44.638200000000005     48.486450000000005     46.918149999999997
H      44.915299999999995     45.900250000000000     47.019449999999992
