18

C      48.009999999999998     48.712949999999999     47.591199999999994
C      47.463700000000003     47.644350000000003     48.451500000000010
C      47.316600000000008     49.167950000000005     46.351300000000002
C      46.641400000000004     46.721649999999997     47.780400000000000
C      49.123900000000006     49.368449999999996     48.084100000000007
C      48.032100000000000     47.434349999999995     49.793899999999994
C      46.529499999999999     48.156549999999996     45.825299999999999
C      46.257599999999996     46.905150000000006     46.430000000000007
C      49.668800000000005     49.079449999999994     49.327500000000001
C      49.149699999999996     48.197249999999997     50.334499999999991
H      47.645200000000003     50.165350000000004     45.919200000000004
H      46.448099999999997     45.834649999999996     48.547300000000000
H      49.763199999999998     50.113249999999994     47.631000000000000
H      47.546999999999997     46.337549999999993     50.135200000000012
H      46.203100000000006     48.137850000000000     44.704099999999997
H      45.635700000000000     46.017449999999997     46.022800000000004
H      50.364300000000000     49.797849999999997     50.027699999999996
H      49.782100000000000     48.188550000000006     51.295900000000003
