18

C      47.993999999999986     47.515099999999990     47.463374999999992
C      48.103199999999994     48.626899999999999     48.326974999999997
C      47.867899999999999     47.427399999999999     46.059925000000014
C      48.527999999999999     49.967199999999998     47.714154999999998
C      47.599399999999996     46.193500000000000     47.974525000000000
C      47.875499999999995     48.549399999999999     49.714444999999998
C      48.168399999999998     48.699199999999998     45.589224999999992
C      48.294699999999999     49.900599999999997     46.338575999999996
C      47.564299999999996     46.262200000000000     49.381974999999997
C      47.729799999999990     47.383299999999998     50.391644999999997
H      47.664299999999990     45.058000000000000     49.711564999999993
H      47.472000000000001     47.415399999999998     51.568275000000000
H      47.668399999999998     46.404899999999998     45.519825000000012
H      48.473899999999993     50.942000000000000     48.227435000000000
H      47.690599999999996     49.284299999999995     50.701674999999994
H      47.914899999999996     48.556899999999992     44.431725000000000
H      48.288899999999991     50.772900000000000     45.766325000000009
H      47.477399999999996     45.195999999999998     47.385365000000000
