6

C      48.063999999999993     47.484749999999998     48.144449999999992
C      48.238599999999998     48.785350000000008     47.781349999999996
H      47.709700000000005     46.572649999999996     47.498750000000008
H      48.071899999999992     47.099950000000007     49.215949999999999
H      48.290299999999995     49.427350000000004     48.685150000000000
H      48.052699999999994     49.058750000000003     46.784050000000001
