55

C      48.390749999999990     52.109149999999993     47.879699999999985
C      48.416950000000000     51.766650000000006     49.294400000000003
C      47.235150000000004     43.108050000000006     48.691799999999994
C      45.912350000000004     48.867550000000001     43.990699999999997
C      47.635950000000001     44.249850000000002     49.564199999999992
C      46.846150000000002     43.650350000000003     47.382100000000001
C      46.275350000000003     47.528550000000003     44.140399999999993
C      47.373049999999999     51.647350000000003     46.868400000000001
C      47.981450000000002     50.427650000000000     49.621400000000001
C      46.117449999999998     49.847149999999999     44.986499999999999
C      47.136350000000000     46.244650000000000     50.590899999999998
C      47.106150000000000     47.619150000000005     50.154000000000003
C      46.962649999999996     45.443950000000001     45.719699999999996
C      46.850949999999997     45.429050000000004     49.535099999999993
C      46.771549999999998     45.123250000000006     47.058199999999992
C      46.666249999999998     46.981650000000002     45.428599999999996
C      46.952449999999999     50.402850000000001     47.306400000000004
C      47.174050000000001     49.751850000000005     48.618800000000000
C      46.639049999999997     49.377850000000002     46.203499999999998
C      46.838450000000002     48.299650000000000     48.959399999999995
C      46.581350000000000     46.091050000000003     48.225699999999996
C      46.732250000000001     47.950150000000001     46.461099999999995
C      46.796750000000003     47.392749999999999     47.900600000000004
C      47.889449999999997     49.915150000000004     50.997899999999994
C      47.204650000000001     48.622550000000004     51.147600000000004
C      48.768150000000006     52.988350000000004     50.056000000000004
C      47.790250000000000     53.734750000000005     50.449899999999992
C      48.405850000000001     50.733850000000004     52.067599999999992
C      47.323149999999998     44.811950000000003     44.462399999999995
C      46.567949999999996     43.459450000000004     44.256399999999992
C      49.990949999999998     53.014350000000007     50.288400000000003
C      47.156250000000000     42.544350000000001     43.398099999999992
C      49.166650000000004     53.255650000000003     47.102799999999995
H      47.202350000000003     42.085550000000005     49.033499999999997
H      45.711950000000002     48.836950000000002     42.836199999999998
H      48.065150000000003     43.711350000000003     50.475100000000005
H      46.231949999999998     42.864650000000005     47.036999999999999
H      46.158749999999998     46.791650000000004     43.327599999999997
H      47.340850000000003     52.056450000000005     46.012700000000002
H      45.937350000000002     50.850250000000003     44.752299999999998
H      47.366950000000003     45.600550000000005     51.621299999999998
H      47.251850000000005     48.153850000000006     52.298799999999993
H      47.322450000000003     53.636449999999996     51.351199999999999
H      47.504649999999998     54.679249999999996     49.941499999999998
H      48.739750000000001     51.803150000000002     51.712899999999998
H      48.319050000000004     50.236250000000005     53.163800000000002
H      45.549149999999997     42.973950000000002     44.175599999999996
H      48.304850000000002     44.632950000000001     43.821499999999993
H      50.273150000000001     52.768950000000004     51.264099999999992
H      48.928849999999997     53.191250000000004     45.999400000000001
H      50.450850000000003     52.878350000000012     49.264500000000005
H      46.817650000000000     41.320750000000004     43.404800000000002
H      47.869149999999998     42.959650000000003     42.874599999999994
H      48.905050000000003     54.231750000000005     47.583099999999995
H      50.227249999999998     52.887150000000005     47.072499999999998
