16

C      48.317779999999992     47.661500000000004     46.799199999999985
C      47.605280000000000     48.594300000000004     47.574700000000000
C      46.783639999999998     48.244200000000006     48.647999999999989
C      46.697910000000000     47.012200000000007     49.152600000000000
C      47.167279999999998     46.084299999999999     48.081600000000002
C      48.354680000000002     46.343299999999999     47.281199999999991
C      47.469079999999998     50.001800000000003     47.167399999999994
H      48.928680000000000     48.160600000000002     46.035699999999999
H      45.955420000000004     46.780300000000011     49.964300000000001
H      46.623580000000004     45.123900000000006     48.348199999999999
H      48.180380000000000     50.441600000000008     46.365299999999998
H      46.432040000000001     50.075000000000003     49.494299999999988
H      50.044579999999996     45.735500000000002     46.373199999999990
O      46.634230000000002     50.876099999999994     47.585999999999991
O      49.194580000000002     45.364000000000004     46.689500000000002
O      46.171430000000001     49.030599999999993     49.552599999999991
