18

C      48.831949999999992     47.891799999999989     48.091649999999994
C      47.406550000000003     47.955100000000002     47.733850000000004
C      49.060350000000007     48.781800000000004     49.285350000000008
C      46.350950000000005     47.989199999999997     48.806750000000008
C      49.753450000000001     47.603800000000007     47.023449999999997
C      46.829650000000001     47.735200000000006     46.473349999999996
C      48.168250000000000     48.353700000000003     50.310050000000004
C      46.722850000000001     48.113799999999998     50.078249999999997
C      49.214250000000000     47.105800000000002     45.773750000000007
C      47.756149999999998     47.217900000000000     45.645150000000001
H      50.008150000000008     49.099900000000005     49.762850000000000
H      45.259250000000002     47.829200000000000     48.626750000000001
H      50.740749999999998     47.727000000000004     47.375850000000000
H      45.660049999999998     47.596199999999996     46.407150000000001
H      48.581550000000000     48.112800000000007     51.299549999999996
H      45.972650000000002     48.375200000000007     50.937049999999999
H      49.767650000000003     46.903300000000002     44.960449999999994
H      47.496450000000003     46.900099999999995     44.700450000000004
