18

C      47.473749999999995     48.378769999999989     47.948199999999993
C      48.458450000000006     47.331269999999989     48.112499999999997
C      47.875949999999996     49.531669999999991     47.167100000000005
C      49.552150000000005     47.573070000000001     47.171999999999997
C      46.175450000000005     48.168269999999993     48.516700000000000
C      48.317550000000004     46.119140000000002     48.871300000000005
C      48.976750000000003     49.751269999999991     46.401299999999992
C      49.882350000000002     48.607769999999988     46.209000000000003
C      45.950849999999996     46.982939999999999     49.103300000000004
C      46.953449999999997     45.985919999999993     49.292100000000005
H      47.354750000000003     50.584769999999992     47.124399999999994
H      50.287749999999996     46.793759999999992     46.822500000000005
H      45.365249999999996     48.766170000000002     48.113399999999999
H      49.094250000000009     45.527090000000001     49.340299999999999
H      49.219650000000001     50.803269999999998     45.931200000000004
H      51.136649999999996     48.763970000000000     45.952299999999994
H      44.863350000000004     46.496219999999994     49.126599999999996
H      46.609950000000005     45.196730000000002     50.068799999999996
