6

C      48.547499999999999     47.975049999999996     47.327499999999986
C      47.499800000000000     47.758749999999999     48.202199999999998
H      47.467099999999995     47.612349999999999     49.475900000000003
H      49.476099999999995     47.573349999999998     47.399200000000000
H      46.523900000000005     48.324649999999998     47.809699999999999
H      48.052399999999999     48.426650000000002     46.524099999999997
