18

C      48.589599999999990     47.477199999999996     47.369050000000001
C      47.692599999999999     48.247999999999998     48.148649999999989
C      49.025500000000001     48.157299999999999     46.161349999999999
C      46.997799999999998     49.354999999999997     47.603650000000002
C      48.995300000000007     46.258800000000001     47.875049999999987
C      47.607099999999996     47.804399999999994     49.564149999999998
C      48.511899999999997     49.370600000000003     45.771150000000006
C      47.599699999999999     50.117899999999999     46.582450000000009
C      48.737499999999990     45.696999999999996     49.074150000000003
C      48.132899999999999     46.592099999999995     50.004750000000001
H      48.933000000000000     49.935600000000001     44.952650000000006
H      47.958500000000001     46.089000000000006     51.047349999999994
H      49.675699999999999     47.605700000000006     45.393050000000002
H      46.324300000000001     49.658300000000004     48.496649999999988
H      49.430799999999998     45.543200000000006     47.304649999999995
H      47.458099999999995     51.228699999999996     46.549250000000001
H      49.301699999999997     44.771300000000004     49.538550000000001
H      47.018999999999998     48.269100000000002     50.502350000000007
