18

C      47.120069999999998     48.262049999999995     47.857999999999997
C      48.507959999999997     48.078150000000001     48.364000000000004
C      46.742009999999993     47.642850000000003     46.704800000000006
C      49.180920000000000     46.796250000000001     47.869799999999998
C      46.550950000000000     49.633350000000007     48.150100000000009
C      49.100340000000003     48.822450000000003     49.391600000000011
C      47.498589999999993     46.588650000000001     46.101500000000001
C      48.579790000000003     46.012650000000001     46.768500000000003
C      47.388349999999988     50.541950000000000     48.918200000000006
C      48.610799999999998     50.149949999999990     49.699600000000004
H      50.235950000000003     46.480849999999997     48.237000000000009
H      45.765990000000002     47.757150000000003     46.170800000000000
H      48.879279999999994     45.014749999999999     46.311300000000003
H      45.764049999999997     49.926749999999998     47.482300000000009
H      49.977949999999993     48.575549999999993     49.933500000000009
H      46.762789999999995     46.084449999999997     45.568500000000000
H      46.526030000000006     50.974750000000000     49.382300000000001
H      48.899619999999999     50.985250000000001     50.431500000000000
