18

C      48.140699999999988     48.042389999999997     47.154949999999999
C      48.214700000000001     47.876000000000005     48.748150000000003
C      47.227899999999998     47.397710000000004     46.373849999999997
C      47.326700000000002     46.948660000000004     49.172750000000001
C      49.015400000000000     49.049150000000004     46.582050000000002
C      49.001000000000005     48.591230000000003     49.620150000000002
C      46.456299999999999     46.311540000000001     47.055250000000008
C      46.685099999999998     45.981940000000002     48.362249999999996
C      49.685800000000000     49.834529999999994     47.428850000000004
C      49.657600000000002     49.561710000000012     48.828250000000004
H      46.856400000000001     47.286510000000000     45.383050000000004
H      47.288300000000000     47.032010000000000     50.110850000000006
H      49.035600000000002     49.221470000000004     45.442249999999994
H      49.388999999999996     48.306630000000006     50.616949999999996
H      45.785100000000000     45.702570000000001     46.466349999999998
H      46.222299999999997     45.245790000000000     48.862850000000002
H      50.214900000000000     50.754210000000000     47.142649999999996
H      50.209800000000001     50.416270000000004     49.168050000000001
