18

C      48.753949999999989     48.612599999999986     48.132949999999994
C      47.607550000000003     47.694799999999994     48.282850000000003
C      50.152250000000009     47.948900000000002     48.225850000000001
C      47.775849999999991     46.294599999999996     48.593650000000004
C      48.460750000000004     49.983199999999989     47.866849999999999
C      46.285950000000000     48.087899999999998     48.162250000000007
C      50.268850000000000     46.492500000000000     48.038649999999997
C      49.117549999999994     45.777099999999997     48.532149999999994
C      47.200249999999997     50.227399999999996     47.338450000000002
C      46.079250000000002     49.336499999999994     47.643850000000000
H      51.070949999999996     48.601999999999997     48.378750000000004
H      46.866450000000000     45.727799999999995     48.932949999999998
H      49.165750000000003     50.683999999999990     48.261949999999999
H      45.433149999999998     47.327700000000000     48.267850000000003
H      51.096450000000004     45.884899999999995     48.131949999999996
H      48.970450000000000     44.599600000000002     48.380949999999991
H      47.014250000000004     51.400399999999998     47.067050000000002
H      44.903549999999996     49.578099999999999     47.462250000000004
