18

C      47.955049999999993     48.834349999999986     47.186099999999996
C      48.065150000000003     47.963750000000005     48.437899999999999
C      48.915849999999992     49.861650000000012     47.238699999999994
C      48.829049999999995     48.331149999999994     49.613299999999995
C      46.897850000000005     48.515550000000005     46.292299999999997
C      47.783349999999999     46.618449999999996     48.223199999999991
C      49.737250000000003     49.957049999999995     48.271399999999986
C      49.690349999999995     49.417150000000007     49.592500000000001
C      46.051549999999999     47.437649999999991     46.381299999999996
C      46.720749999999995     46.501649999999998     47.288399999999996
H      49.080249999999992     50.413950000000000     46.315399999999997
H      48.864450000000005     47.680650000000000     50.603799999999993
H      46.802250000000001     49.174849999999992     45.395499999999998
H      48.187449999999998     45.776349999999994     48.682100000000005
H      50.689250000000001     50.540350000000004     48.283400000000000
H      50.274349999999998     49.843350000000001     50.604500000000002
H      45.310749999999999     47.215149999999994     45.655799999999999
H      46.571750000000002     45.459649999999996     46.861999999999995
