19

C      48.372499999999988     47.915899999999993     47.501350000000002
C      47.209800000000001     47.035000000000004     47.844949999999997
C      48.573499999999996     50.548200000000001     47.199449999999999
C      46.109099999999998     47.356500000000004     47.057050000000004
C      49.632500000000007     47.445100000000004     47.969849999999994
C      47.479600000000005     45.815599999999996     48.625149999999991
C      47.769300000000001     49.241700000000002     46.981849999999994
C      46.455200000000005     48.753599999999999     46.621350000000007
C      49.789299999999997     46.467099999999995     49.035550000000001
C      48.667400000000001     45.582900000000002     49.207849999999993
H      45.099699999999999     46.853500000000004     47.364649999999997
H      49.401300000000006     50.578099999999999     48.089950000000002
H      49.403900000000007     50.791199999999996     46.384950000000003
H      47.851399999999998     51.282400000000003     47.658249999999995
H      50.647599999999997     47.520499999999991     47.274749999999997
H      46.810000000000002     44.931699999999999     48.499150000000000
H      45.860100000000003     49.413099999999993     46.045450000000002
H      50.900300000000001     46.439199999999992     49.462350000000001
H      48.789700000000011     44.717599999999997     49.954549999999998
