39

C      49.613249999999987     43.723274999999980     50.400049999999986
C      48.261849999999995     49.074154999999998     47.834449999999990
C      49.535349999999994     49.324434999999994     48.445449999999994
C      49.083549999999995     45.150290999999996     50.251350000000002
C      47.435749999999992     47.840064999999996     48.229549999999989
C      49.776549999999986     48.792514999999995     49.709449999999990
C      47.820749999999997     45.458199999999991     49.606749999999991
C      49.857749999999996     46.292884999999998     50.173649999999995
C      47.863449999999993     46.817304999999990     49.095549999999989
C      49.247949999999996     47.482664999999997     49.527149999999992
C      47.701149999999991     49.985984999999999     46.947249999999997
C      48.441049999999997     51.123545000000007     46.478449999999995
C      49.674349999999997     51.361674999999998     46.992350000000002
C      50.147749999999988     50.622854999999994     48.197249999999997
C      46.246449999999996     49.966574999999992     46.818349999999995
C      45.829549999999998     51.017605000000003     45.918949999999995
C      46.604249999999993     51.841284999999999     45.235749999999996
C      45.505349999999993     48.833074999999994     47.217649999999992
C      46.092749999999995     47.607434999999995     47.748750000000001
C      50.584749999999993     52.461924999999994     46.600849999999994
C      51.728149999999999     52.480884999999994     48.502650000000003
C      51.244050000000001     51.190624999999997     48.849449999999990
C      44.351249999999993     50.949555000000004     45.796449999999993
H      48.959849999999996     42.922174999999996     50.522649999999999
H      50.040449999999993     43.720974999999996     51.360050000000001
H      50.520449999999997     43.562974999999994     49.427549999999997
H      50.819949999999992     48.990524999999991     50.217349999999996
H      47.243649999999995     44.797174999999996     49.107549999999989
H      50.857550000000003     46.458385000000007     50.497450000000001
H      46.116149999999998     52.730294999999998     44.639949999999999
H      44.469149999999992     48.112444999999994     47.026949999999999
H      45.407749999999993     46.617514999999997     47.867750000000001
H      50.447149999999993     52.858504999999994     45.590649999999997
H      52.414050000000003     52.913105000000002     49.319649999999996
H      51.638549999999995     50.913954999999987     49.792249999999996
H      43.585949999999997     50.360225000000000     46.467249999999993
N      47.834049999999998     51.882604999999998     45.553049999999999
N      51.467749999999995     53.077825000000004     47.379649999999998
O      43.683749999999996     51.544464999999995     44.946149999999989
