5

C      47.755749999999992     48.204934999999992     47.963499999999996
H      47.395750000000000     48.676824999999994     47.120700000000006
H      47.259449999999994     47.192594999999997     47.692000000000000
H      48.740550000000006     48.239895000000004     47.971499999999999
H      47.466149999999999     48.807405000000003     48.879299999999994
