20

C      47.746399999999994     49.441999999999993     48.529849999999982
C      48.691600000000001     48.671900000000008     47.874449999999996
C      48.252800000000001     47.546900000000008     47.038849999999996
C      46.884399999999999     47.177000000000007     46.919550000000001
C      46.074599999999997     47.552199999999999     48.084149999999994
C      46.502900000000004     48.753900000000002     48.678249999999991
C      50.133299999999998     48.901200000000003     48.207749999999990
C      50.920600000000000     47.801400000000001     47.666649999999990
C      44.678699999999999     47.078000000000003     48.498049999999992
H      49.028799999999997     46.858900000000006     46.681449999999998
H      48.063300000000005     50.001400000000004     49.334750000000000
H      46.459800000000001     46.324100000000001     46.364449999999991
H      45.894700000000000     49.192099999999996     49.423450000000003
H      50.833700000000000     47.784400000000005     46.547349999999994
H      51.927500000000002     47.961399999999998     47.387249999999995
H      44.269600000000004     47.832599999999999     48.011249999999990
H      44.072499999999998     45.998599999999996     48.184049999999999
H      44.812700000000000     46.733000000000004     49.635550000000009
H      50.682800000000000     46.809399999999997     48.062749999999994
O      50.659600000000005     49.769800000000004     48.790949999999995
