18

C      48.443249999999992     47.824049999999993     48.062899999999999
C      47.004049999999999     48.095050000000001     47.468900000000005
C      49.292949999999998     48.611649999999997     48.880400000000009
C      46.393849999999993     49.072550000000007     48.396400000000000
C      49.191449999999996     46.731050000000010     47.595600000000005
C      46.588050000000003     47.304950000000005     46.435100000000006
C      48.515049999999995     49.337550000000007     49.721199999999996
C      47.208649999999999     49.755949999999999     49.403199999999998
C      48.757349999999995     46.114850000000004     46.345200000000006
C      47.443549999999995     46.145550000000000     45.996400000000008
H      50.491750000000003     48.551550000000006     48.721400000000003
H      45.508249999999997     48.501850000000005     48.760399999999990
H      49.923949999999998     46.296250000000001     48.150399999999991
H      45.616250000000001     47.285650000000004     45.955300000000008
H      48.928449999999991     49.833350000000010     50.777999999999992
H      46.596950000000000     50.541950000000000     49.866000000000000
H      49.514649999999996     45.458050000000000     46.091800000000006
H      47.091649999999994     45.601450000000000     45.222000000000008
