56

C      48.232599999999998     47.413950000000000     47.626592949999988
C      47.348100000000002     46.709249999999997     46.736402949999999
C      51.425200000000004     44.311750000000004     46.728082950000001
C      49.572199999999995     47.149450000000002     47.902292950000003
C      47.885400000000004     45.586550000000003     45.731052950000006
C      51.428899999999999     45.681449999999998     47.165952950000005
C      50.090400000000002     46.092050000000000     46.903942950000001
C      49.233999999999995     45.298749999999998     45.995282950000004
C      47.629700000000000     48.442049999999995     48.650422950000006
C      46.239899999999992     48.829250000000002     48.571542950000008
C      45.515199999999993     47.997650000000007     47.612232950000006
C      46.015400000000000     46.951549999999997     46.667462950000001
C      48.625900000000001     49.206450000000004     49.321032950000003
C      48.128399999999999     50.590350000000001     49.757662949999997
C      46.828099999999992     51.033850000000001     49.745382949999993
C      45.859300000000005     49.978650000000002     49.365412950000007
C      49.894999999999996     48.807350000000000     49.721852949999999
C      50.462299999999999     47.922250000000005     48.760972949999996
C      51.925399999999996     47.976550000000003     48.333642949999998
C      52.372299999999996     46.585549999999998     48.068532950000005
C      46.617599999999996     45.249650000000003     45.128112950000002
C      46.170699999999997     43.847149999999999     44.694220950000002
C      45.408799999999999     45.975949999999997     45.750402949999994
C      44.256900000000002     48.730950000000007     47.223782950000000
C      43.787700000000001     49.398249999999990     48.621702950000000
C      44.402199999999993     49.984449999999995     49.626492949999999
C      49.231600000000000     51.575350000000000     50.109292949999997
C      49.994500000000002     51.043549999999996     51.227562950000006
C      50.554599999999994     49.573449999999994     50.926132950000010
C      43.892200000000003     45.697150000000008     45.544702950000001
C      50.779399999999995     43.849149999999995     45.615612949999999
H      51.982600000000005     48.492849999999990     47.342542949999995
H      52.697299999999998     48.748249999999999     48.606202949999997
H      53.411799999999999     46.840150000000008     47.270402950000005
H      52.828000000000003     45.946050000000000     48.714882950000003
H      45.303299999999993     43.938649999999996     45.497502949999998
H      45.334099999999992     43.854749999999996     44.049837049999994
H      47.019300000000001     43.172550000000001     44.661791949999994
H      44.504599999999996     49.485950000000003     46.504472949999993
H      43.437199999999997     48.173149999999993     46.759172949999993
H      42.588200000000001     49.374150000000000     48.484102949999993
H      43.962199999999996     50.633150000000001     50.571642949999998
H      49.917500000000004     51.511949999999999     49.204192950000007
H      48.561099999999996     52.579650000000001     50.211712950000006
H      49.175600000000003     51.092249999999993     51.950162950000006
H      51.012699999999995     51.723849999999999     51.478082950000001
H      51.726900000000001     49.478750000000005     50.485772949999998
H      50.607299999999995     48.917949999999990     51.836992949999996
H      47.116799999999998     53.032849999999996     49.630342949999999
H      43.600699999999996     46.073350000000005     44.555600949999999
H      43.299299999999995     45.720050000000001     46.442742949999996
H      43.970200000000006     44.642250000000004     45.489322950000002
H      51.330900000000000     42.967150000000004     45.171972949999997
H      52.263199999999998     43.537750000000003     47.037182950000002
N      49.574500000000000     44.231949999999998     45.351332950000000
O      46.474599999999995     52.368749999999991     49.676472950000004
