6

C      48.321097999999985     48.300999999999988     48.616614999999996
C      47.940033999999990     47.620800000000003     47.574455000000000
H      48.568079999999988     49.412800000000004     48.712985000000003
H      47.425810000000006     47.965699999999998     46.589844999999997
H      48.574189999999994     47.582099999999997     49.410155000000003
H      48.348340999999991     46.587199999999996     47.584954999999994
