37

C      46.014600000000002     48.224999999999994     47.628099999999989
C      46.272100000000009     49.589899999999993     48.032499999999999
C      50.531499999999994     47.041199999999996     48.825800000000001
C      51.117300000000000     48.335599999999992     48.957599999999999
C      47.043000000000006     47.248799999999996     47.474199999999996
C      47.684899999999999     49.848899999999993     48.537000000000006
C      49.307500000000005     46.770400000000002     47.982400000000013
C      50.153199999999998     49.412900000000000     48.684100000000001
C      48.284900000000007     47.736100000000000     47.896000000000001
C      48.762100000000004     48.911200000000001     48.637000000000000
C      44.539300000000011     48.210400000000000     47.377300000000005
C      43.548500000000004     49.154699999999998     47.373699999999999
C      43.827700000000007     50.321899999999992     48.003399999999999
C      45.228800000000007     50.547400000000003     48.355199999999996
C      51.513899999999992     46.041699999999999     48.638900000000007
C      52.916399999999996     46.070099999999989     48.945700000000002
C      53.363100000000003     47.355699999999992     48.999500000000012
C      52.577900000000000     48.579400000000000     48.888000000000005
C      42.151100000000000     48.605899999999998     47.101900000000001
H      46.961800000000011     46.358399999999996     46.827900000000000
H      48.485200000000006     50.563799999999993     48.030400000000000
H      49.276200000000003     45.775999999999989     47.365899999999996
H      44.045500000000004     47.374400000000001     46.708399999999997
H      45.664600000000007     51.464300000000001     48.766400000000004
H      53.454800000000006     45.212299999999992     48.863400000000013
H      54.477999999999994     47.511599999999994     49.315600000000003
H      50.157300000000006     44.535699999999999     48.198000000000008
H      42.667400000000001     51.059399999999989     49.684799999999996
H      54.130900000000011     49.717899999999993     49.282700000000006
H      51.429700000000011     50.750799999999991     48.033500000000004
H      41.873500000000007     47.722000000000001     46.419899999999998
H      41.542900000000003     48.262799999999991     48.045600000000007
H      41.522000000000006     49.316699999999990     46.315200000000004
O      51.216500000000011     44.804499999999997     48.327500000000001
O      42.831800000000001     51.011099999999992     48.704999999999998
O      53.039000000000001     49.828099999999999     49.172600000000003
O      50.662300000000002     50.465499999999999     47.973400000000012
