45

C      47.336809999999986     48.893650000000001     48.013449999999992
C      47.484809999999996     47.850149999999999     46.971849999999989
C      51.274910000000006     50.760750000000002     45.411949999999990
C      50.875110000000006     50.168150000000011     44.215350000000001
C      48.490510000000000     49.794750000000008     47.963650000000001
C      48.224209999999999     48.047449999999998     45.799049999999994
C      50.305009999999996     50.870450000000005     46.537449999999993
C      49.766909999999996     49.279450000000011     44.217050000000000
C      49.076710000000006     49.996450000000010     46.662649999999999
C      48.911410000000004     49.192149999999998     45.340049999999991
C      46.033990000000003     49.415550000000010     48.212949999999992
C      44.899240000000006     48.541449999999998     48.187249999999992
C      45.358509999999995     47.218750000000000     48.224949999999993
C      46.624910000000000     46.712450000000004     47.489350000000002
C      48.953410000000005     50.103250000000003     49.293549999999996
C      49.670210000000012     49.106350000000006     49.931849999999997
C      45.649339999999995     50.928950000000000     48.459249999999997
C      49.603310000000008     49.745950000000008     51.288149999999987
C      50.248110000000011     48.546350000000004     52.001849999999990
C      52.476709999999997     51.500050000000002     45.762249999999995
C      44.884720000000002     45.961250000000007     49.047149999999988
C      46.930710000000005     45.435950000000005     47.291649999999990
C      44.006289999999993     45.137550000000005     48.753249999999994
H      51.510909999999996     50.043250000000000     43.375749999999996
H      47.911609999999996     47.176850000000002     45.250249999999994
H      50.771310000000000     51.752949999999998     47.048649999999995
H      49.518310000000000     48.879050000000007     43.206750000000000
H      48.982709999999997     51.211950000000002     49.618549999999999
H      49.724509999999995     48.052650000000000     49.548049999999989
H      46.288579999999996     51.159150000000011     49.371949999999998
H      45.996510000000001     51.791550000000001     47.758749999999992
H      50.231909999999999     47.601849999999999     51.432549999999992
H      49.648009999999999     48.145949999999999     52.793250000000000
H      51.327910000000003     48.690150000000003     52.432149999999993
H      53.165310000000005     51.582350000000005     44.839549999999988
H      44.643569999999997     50.907850000000010     49.076149999999998
H      43.423789999999997     45.550350000000009     48.086149999999989
H      45.471760000000003     45.854950000000002     49.971449999999990
H      46.312010000000001     44.709350000000001     47.615049999999997
H      47.840209999999999     45.047449999999998     46.654849999999996
H      42.834689999999995     48.774850000000001     48.000549999999990
H      43.963740000000001     44.208449999999999     49.214549999999988
O      48.729110000000006     50.557749999999999     51.653249999999986
O      53.060209999999998     51.495750000000001     46.822049999999990
O      43.593879999999999     48.783550000000005     48.509349999999984
