48

C      47.260699999999993     49.760499999999986     47.534399999999984
C      48.375799999999998     50.795400000000001     47.517599999999987
C      50.593799999999995     46.170199999999994     48.724799999999988
C      51.679500000000004     47.195299999999996     48.614899999999992
C      47.638799999999996     48.328899999999997     47.417299999999997
C      49.663899999999998     50.225399999999993     47.667899999999989
C      49.251899999999999     46.578399999999995     48.346299999999999
C      51.328399999999995     48.607999999999997     48.529100000000000
C      49.015400000000000     47.923799999999993     48.009099999999989
C      49.959699999999998     49.010299999999994     48.331999999999994
C      45.952099999999994     50.081299999999999     47.324099999999987
C      45.623300000000000     51.475999999999999     47.594600000000000
C      46.609999999999999     52.463700000000003     47.724999999999994
C      47.963199999999986     52.263899999999992     47.682099999999991
C      50.737099999999998     44.813699999999997     49.000299999999996
C      52.146299999999997     44.361699999999999     48.771099999999990
C      53.136199999999988     45.248799999999996     48.330699999999993
C      52.952699999999993     46.636699999999998     48.554099999999991
C      44.953399999999995     49.014899999999997     47.174899999999994
C      43.605100000000000     49.609799999999993     46.867300000000000
C      43.296399999999998     50.954700000000003     46.946899999999999
C      44.168899999999994     51.898099999999992     47.576899999999995
C      45.259699999999995     47.647299999999994     47.361399999999989
C      46.646999999999998     47.223699999999994     47.311299999999989
C      47.117999999999995     45.862899999999996     47.320399999999992
C      48.096699999999998     45.515699999999995     48.212299999999999
C      49.648599999999995     43.925100000000000     49.421399999999991
C      48.605000000000004     44.142399999999995     48.470199999999991
C      52.767399999999995     42.981299999999997     49.298599999999993
C      42.436000000000000     48.654799999999994     46.339199999999991
H      41.879700000000000     49.121499999999997     45.619000000000000
H      50.403299999999987     50.849599999999995     48.105499999999992
H      52.061499999999995     49.318099999999994     48.951200000000000
H      46.275900000000000     53.470600000000005     47.823299999999989
H      48.594800000000006     53.050099999999993     48.033999999999992
H      54.120300000000000     44.682299999999998     48.516399999999990
H      54.109399999999994     47.068099999999994     48.446099999999987
H      42.182099999999998     51.277299999999997     47.029399999999995
H      43.997000000000000     52.822000000000003     47.919100000000000
H      44.349799999999995     46.930499999999995     47.459099999999992
H      46.356699999999996     45.024799999999999     47.046299999999988
H      51.904699999999991     42.529399999999995     49.619499999999988
H      47.839500000000001     43.346099999999993     48.280199999999994
H      49.795999999999992     43.283999999999992     50.381000000000000
H      53.451499999999996     42.593699999999998     48.506199999999993
H      53.536799999999999     43.152199999999993     50.315699999999993
H      41.934500000000000     48.520899999999997     47.349299999999999
H      42.538100000000000     47.681299999999993     46.010599999999997
