45

C      47.972049999999996     48.637349999999998     47.487150000000000
C      48.075749999999999     47.139050000000005     47.720349999999996
C      44.759050000000002     47.840850000000010     50.758349999999993
C      47.355949999999993     49.408850000000008     48.353750000000005
C      46.881050000000002     46.588150000000006     48.401449999999997
C      45.225549999999998     49.148450000000004     50.321950000000001
C      46.229749999999996     48.831450000000011     49.235149999999990
C      46.135449999999992     47.434450000000005     49.268950000000004
C      49.128450000000001     49.204350000000005     46.741150000000005
C      50.236050000000006     48.410450000000004     46.321749999999994
C      50.373149999999995     47.050450000000005     46.666049999999998
C      49.353350000000006     46.447450000000011     47.519149999999996
C      49.116249999999994     50.593050000000012     46.474549999999994
C      50.300150000000002     51.124150000000007     45.892250000000004
C      51.399050000000003     50.315150000000010     45.502849999999995
C      51.414249999999996     48.926450000000010     45.748750000000001
C      48.101349999999996     51.371350000000014     47.255350000000007
C      47.155850000000001     50.767350000000008     48.095050000000001
C      46.424449999999993     51.806050000000006     49.071150000000003
C      44.735150000000004     50.491350000000004     50.329449999999994
C      46.936849999999993     45.170450000000010     48.669650000000004
C      48.080249999999992     44.465450000000004     48.252649999999988
C      49.254949999999994     45.008150000000008     47.625749999999996
C      44.832849999999993     51.380749999999999     49.157049999999998
C      52.402349999999998     47.881750000000004     45.143649999999994
C      43.563350000000000     50.852750000000007     51.234949999999998
H      43.902749999999997     47.709650000000003     51.407550000000001
H      51.161450000000002     46.490550000000006     46.078749999999999
H      50.704149999999998     52.216850000000001     45.442449999999994
H      52.178749999999994     50.895050000000005     44.965950000000007
H      48.539149999999992     52.412750000000010     47.263350000000003
H      46.451449999999994     52.739449999999998     48.465149999999994
H      46.920950000000005     51.810550000000013     50.105249999999998
H      46.044550000000001     44.589250000000007     49.171949999999995
H      48.179349999999999     43.260550000000002     48.283850000000001
H      50.162250000000000     44.177450000000007     47.441050000000004
H      44.402850000000001     52.339750000000002     49.499749999999992
H      44.411649999999995     50.722550000000005     48.385750000000002
H      52.041449999999998     46.927250000000008     44.982450000000000
H      52.591649999999987     48.044550000000008     43.974850000000004
H      53.161749999999998     47.691150000000007     45.911649999999995
H      43.411050000000003     51.946650000000012     51.882450000000006
H      42.838250000000002     51.089250000000000     50.478049999999996
H      43.872850000000000     49.970850000000006     52.025149999999996
N      45.225250000000003     46.854850000000006     50.151650000000004
