18

C      47.286100000000005     48.517649999999996     48.261350000000000
C      47.751400000000004     47.258749999999999     48.676450000000003
C      46.170699999999997     48.471350000000001     47.438749999999999
C      46.987400000000008     46.083850000000005     48.710450000000009
C      48.082700000000003     49.758949999999999     48.394850000000005
C      49.002399999999994     47.382750000000001     49.380450000000010
C      45.739699999999999     47.210050000000003     46.960950000000011
C      45.812399999999997     46.271950000000004     48.008949999999999
C      49.408400000000000     49.675950000000000     48.668050000000008
C      49.997199999999992     48.296250000000001     48.872349999999997
H      45.517700000000005     49.519850000000005     47.368650000000002
H      47.275700000000001     45.176349999999999     49.248649999999998
H      47.695399999999992     50.823650000000001     48.100149999999999
H      49.232399999999998     46.351950000000002     49.797049999999999
H      45.034900000000007     47.064950000000003     46.202950000000001
H      45.340800000000002     45.361249999999998     47.788550000000001
H      49.849800000000002     50.497050000000002     48.733450000000005
H      50.965099999999993     48.052849999999999     48.769850000000005
