18

C      47.049609999999994     48.429649999999988     48.443749999999994
C      47.177289999999999     47.663349999999994     47.171250000000008
C      46.926590000000004     47.709750000000000     49.685849999999995
C      47.270210000000006     46.288049999999998     47.123550000000002
C      47.410240000000002     49.840549999999993     48.513349999999996
C      47.900649999999999     48.500050000000002     46.212049999999998
C      46.727260000000001     46.225549999999998     49.506850000000007
C      47.129700000000000     45.612750000000005     48.279450000000004
C      47.703130000000002     50.620649999999998     47.371749999999999
C      48.362230000000011     49.872150000000005     46.356850000000001
H      48.347220000000007     48.081350000000000     45.323450000000001
H      47.938720000000004     51.597650000000002     47.830950000000001
H      47.394370000000009     48.029250000000005     50.515549999999998
H      47.641300000000001     45.636349999999993     46.317550000000004
H      47.651760000000010     50.173749999999998     49.531050000000000
H      49.272739999999999     50.023250000000004     45.797650000000004
H      46.853770000000004     45.864949999999993     50.676549999999999
H      47.250170000000004     44.402349999999998     48.364550000000001
