18

C      48.277054999999997     47.806999999999995     48.600349999999992
C      48.103234999999998     47.529800000000002     47.161149999999999
C      47.509495000000001     47.321899999999999     49.746249999999996
C      46.973635000000002     46.698900000000002     46.923349999999999
C      49.631074999999996     48.382500000000007     48.723250000000000
C      48.966545000000004     47.878900000000002     46.197150000000001
C      46.238734999999998     46.766800000000003     49.393949999999997
C      46.047345000000000     46.606200000000001     47.947650000000003
C      50.187235000000001     49.112300000000005     47.546550000000003
C      49.895175000000009     48.950100000000006     46.186249999999994
H      47.602175000000003     47.585900000000002     50.766950000000001
H      46.534714999999998     46.294499999999999     45.802149999999997
H      50.305774999999997     48.175700000000006     49.638449999999999
H      48.753185000000002     47.430800000000005     45.233049999999999
H      45.453315000000003     46.738000000000000     50.181449999999991
H      44.854354999999998     46.330500000000001     47.885550000000002
H      51.145645000000002     49.705500000000001     47.493249999999996
H      50.670315000000002     49.290599999999998     45.499249999999996
