44

C      48.761249999999990     48.748400000000004     45.320949999999989
C      46.632950000000001     47.255699999999997     49.652749999999997
C      50.700450000000011     47.110900000000008     49.766550000000002
C      47.547950000000000     48.463000000000001     46.226749999999996
C      50.105449999999998     48.429800000000007     45.822149999999993
C      46.559750000000001     47.712800000000009     48.357750000000003
C      51.563049999999997     48.058100000000003     47.602449999999997
C      47.987749999999998     47.346100000000000     50.370450000000005
C      51.760950000000001     47.508500000000005     48.960350000000005
C      47.660850000000003     48.071600000000011     47.608350000000002
C      50.137650000000001     48.280700000000003     47.224750000000000
C      49.224449999999997     47.582300000000011     49.490750000000006
C      48.999650000000003     47.946600000000011     48.107450000000000
C      48.652549999999998     49.149999999999999     44.040750000000003
C      47.371049999999997     49.339900000000007     43.638449999999999
C      46.108550000000001     49.166400000000003     44.292749999999998
C      46.233150000000002     48.719900000000003     45.661150000000006
C      45.046849999999999     48.208599999999997     46.397950000000002
C      45.343049999999998     47.462499999999999     47.566749999999999
C      45.296749999999996     47.332000000000001     50.297150000000002
C      45.313049999999997     47.155700000000003     51.725450000000009
C      46.587849999999996     47.257200000000005     52.361350000000002
C      47.940449999999998     47.348800000000004     51.809649999999998
C      44.216850000000001     46.727100000000000     49.634349999999998
C      44.355350000000001     46.640100000000011     48.285849999999996
C      43.830050000000000     48.000200000000000     45.546850000000006
C      52.388750000000002     48.201000000000001     46.399550000000005
H      50.750650000000000     46.454200000000007     50.539149999999992
H      52.853950000000005     47.158500000000011     49.124549999999999
H      47.345250000000000     49.615400000000001     42.668650000000000
H      45.394349999999996     49.178000000000004     43.627450000000003
H      44.425850000000004     47.312600000000010     52.297249999999991
H      46.838950000000004     46.929600000000001     53.331350000000000
H      49.062149999999995     47.103200000000008     51.941249999999997
H      43.589149999999997     46.347799999999999     47.650550000000010
H      43.248849999999997     46.232700000000001     50.162849999999992
H      50.462850000000010     49.767299999999999     43.439349999999997
H      44.033250000000002     47.083100000000009     44.922150000000002
H      42.838050000000003     47.761100000000006     46.360450000000000
H      43.839950000000002     48.604199999999999     44.704050000000002
H      53.161949999999997     48.765999999999998     46.374650000000003
H      52.944049999999997     47.193500000000007     46.282449999999997
O      51.255150000000008     48.436799999999998     45.211649999999999
O      49.766150000000003     49.131700000000002     43.190350000000002
