82

C      46.839449999999992     45.815849999999990     44.460299999999989
C      45.967150000000004     47.008949999999999     44.651899999999983
C      48.754149999999996     45.756450000000001     49.403599999999983
C      51.724149999999995     49.566350000000000     51.185899999999990
C      48.305650000000000     46.044349999999994     44.814200000000000
C      49.466750000000005     46.467649999999992     50.499399999999994
C      51.177650000000000     48.112849999999995     51.037799999999990
C      48.841749999999990     46.363950000000003     47.957699999999988
C      46.721850000000003     48.167850000000001     45.100600000000000
C      51.380049999999997     50.417249999999996     49.588200000000001
C      48.386049999999997     48.733149999999995     47.007199999999983
C      50.145249999999990     47.838949999999997     50.122999999999990
C      49.080050000000000     47.014749999999992     45.352499999999992
C      48.946150000000003     48.025149999999996     48.149400000000000
C      48.214749999999995     48.015349999999998     45.862099999999998
C      49.905050000000003     50.178150000000002     49.079999999999984
C      49.719549999999998     48.706549999999993     49.080199999999991
C      46.125149999999998     44.676149999999993     44.022399999999990
C      44.775149999999996     44.699150000000003     43.875299999999996
C      43.845950000000002     45.780749999999998     43.799700000000001
C      44.518050000000002     47.002150000000000     44.445299999999989
C      47.852350000000001     44.840450000000004     49.740600000000001
C      47.927449999999993     44.368049999999997     51.046399999999991
C      48.724249999999998     44.756450000000001     52.042199999999994
C      49.435749999999999     46.037350000000004     51.826799999999992
C      50.473550000000003     46.436449999999994     52.829499999999996
C      51.479849999999999     47.317250000000001     52.302999999999997
C      48.820549999999997     44.634150000000005     44.436899999999994
C      48.187150000000003     43.361949999999993     44.110299999999995
C      46.716349999999998     43.198650000000001     43.934799999999996
C      46.137450000000001     49.381349999999998     44.842699999999994
C      44.799549999999996     49.409049999999993     44.485099999999989
C      43.927050000000001     48.263049999999993     44.581099999999992
C      51.157150000000001     51.882549999999995     49.928199999999990
C      42.701250000000002     45.633650000000003     43.318399999999997
C      46.898650000000004     43.225849999999994     51.560699999999997
C      51.107950000000002     50.204750000000004     52.034599999999998
C      50.390349999999998     46.005449999999996     47.709999999999994
C      52.909149999999997     52.341049999999996     44.868699999999990
C      51.841449999999995     51.482249999999993     44.637099999999990
C      51.737350000000006     50.532550000000001     45.798499999999990
C      52.423150000000007     50.842550000000003     47.019999999999982
C      53.190449999999998     52.006150000000005     47.161799999999999
C      53.434349999999995     52.903350000000003     46.004799999999989
C      52.451750000000004     50.102249999999998     48.470099999999988
H      53.030050000000003     49.268349999999998     51.532699999999991
H      48.010249999999999     45.706649999999996     47.286099999999990
H      47.645249999999997     49.756050000000002     46.988799999999998
H      44.364350000000002     43.523650000000004     43.540099999999995
H      48.423149999999993     44.139349999999993     52.996299999999991
H      50.069350000000000     46.964550000000003     53.641300000000001
H      52.459350000000001     47.352949999999993     52.741000000000000
H      49.927049999999994     44.693749999999994     44.611599999999996
H      48.660550000000001     43.488649999999993     42.997599999999991
H      46.145350000000001     42.498649999999998     44.652900000000002
H      46.573349999999998     42.956750000000000     42.854100000000003
H      46.752549999999999     50.261049999999997     45.073700000000002
H      44.231449999999995     50.177549999999997     44.044299999999993
H      42.738749999999996     48.480249999999998     44.818799999999982
H      49.960149999999999     46.972250000000003     45.696099999999987
H      47.444549999999992     42.291049999999998     51.622199999999992
H      41.833050000000000     46.161249999999995     43.445700000000002
H      42.725949999999997     44.986649999999997     42.358699999999999
H      46.240150000000000     43.146150000000006     50.586499999999987
H      46.373750000000001     43.387450000000001     52.510099999999994
H      51.281450000000007     51.457949999999997     51.962699999999998
H      50.799350000000004     49.912350000000004     53.049999999999997
H      50.844049999999996     47.055449999999993     47.116999999999990
H      50.337750000000000     45.191249999999997     46.844299999999990
H      51.526150000000001     46.011349999999993     48.367499999999993
H      51.351749999999996     51.737349999999992     43.675600000000003
H      51.533349999999999     49.477450000000005     45.706299999999985
H      54.117449999999991     52.214050000000000     47.942299999999989
H      54.166950000000000     53.708950000000002     46.283900000000003
H      53.446150000000003     53.594750000000005     43.417499999999990
H      53.591750000000005     50.128850000000000     48.551999999999992
H      49.722849999999994     50.386449999999996     47.983699999999999
H      45.976250000000000     44.577249999999992     49.630200000000002
H      49.159850000000006     50.525350000000003     49.813999999999993
O      51.162149999999997     52.967050000000000     50.351900000000001
O      46.652649999999994     44.664649999999995     49.037499999999994
O      53.542749999999998     52.610749999999996     43.586599999999990
