36

C      49.409849999999992     47.465850000000003     46.441299999999991
C      48.237049999999996     48.291450000000005     45.941200000000009
C      47.808549999999997     47.813250000000004     50.902100000000004
C      46.464349999999996     48.191250000000004     50.476500000000001
C      49.368549999999999     47.188350000000007     47.730900000000005
C      47.186549999999997     48.500850000000007     46.938000000000002
C      48.714250000000007     47.238750000000003     49.949400000000011
C      46.070850000000007     48.640650000000001     49.191200000000009
C      48.335650000000001     47.399450000000009     48.638300000000001
C      47.079850000000008     48.204050000000002     48.353300000000004
C      50.488050000000001     47.101950000000009     45.434600000000003
C      50.158150000000006     47.105150000000002     44.077500000000001
C      49.020250000000004     48.017050000000005     43.871400000000008
C      48.168549999999996     48.803350000000002     44.583600000000004
C      48.129750000000001     48.068950000000008     52.264000000000010
C      47.255250000000004     48.475650000000009     53.218699999999998
C      46.030050000000003     49.135550000000002     52.818899999999999
C      45.796350000000004     48.984150000000007     51.467900000000000
C      50.669049999999999     46.206949999999999     42.868700000000004
C      45.139449999999997     49.835950000000004     48.640200000000007
H      45.563550000000006     50.718049999999998     48.954400000000007
H      50.110550000000003     46.465650000000004     48.161900000000003
H      46.146050000000002     48.836150000000011     46.613200000000006
H      49.710949999999997     47.083150000000010     50.340800000000002
H      51.460050000000010     46.761450000000004     45.728500000000011
H      48.908450000000002     47.864550000000001     42.808300000000003
H      47.449050000000000     49.605449999999998     44.179000000000002
H      49.097450000000009     47.519150000000003     52.626900000000006
H      45.399150000000006     49.528050000000000     53.486300000000000
H      44.651049999999998     49.361250000000005     51.101100000000002
H      51.759349999999998     46.372750000000003     42.649200000000008
H      50.299450000000007     45.281950000000002     43.175500000000000
H      50.481150000000000     46.426250000000003     41.749099999999999
H      44.240650000000002     49.690850000000005     49.045000000000002
H      44.950450000000004     49.579050000000002     47.569600000000008
O      47.789250000000010     48.839150000000011     54.250900000000001
