18

C      47.187804999999997     47.784649999999999     48.342499999999994
C      48.344445000000000     48.582750000000004     47.775500000000001
C      45.917935000000000     47.605050000000006     47.675300000000000
C      48.324435000000001     48.739450000000005     46.296999999999997
C      47.585175000000000     47.089950000000002     49.568700000000007
C      49.575175000000009     48.620249999999999     48.497500000000002
C      45.970015000000004     47.883749999999992     46.301499999999997
C      47.291105000000002     48.160049999999998     45.669699999999999
C      48.710155000000000     47.495050000000006     50.301400000000001
C      49.915595000000003     48.004149999999996     49.785100000000000
H      44.978225000000002     47.077150000000003     48.070599999999999
H      48.958114999999999     49.575649999999996     45.832099999999997
H      46.791715000000003     46.424350000000004     50.059300000000007
H      50.660735000000003     49.113949999999988     48.371499999999997
H      44.971325000000000     48.039450000000002     45.775900000000000
H      47.332514999999994     48.400350000000003     44.653599999999997
H      48.622504999999997     46.918750000000003     51.346400000000003
H      51.028675000000000     48.184950000000001     50.289400000000001
