42

C      47.961599999999990     47.517949999999992     48.044104999999995
C      47.176400000000001     47.633349999999993     46.742055000000001
C      43.724100000000000     48.421849999999992     49.618634999999998
C      47.260300000000001     47.366149999999990     49.161394999999999
C      45.770899999999997     47.712249999999997     46.753835000000002
C      44.944299999999998     47.902349999999998     50.224135000000004
C      43.819400000000002     48.698449999999994     48.102435000000000
C      45.909399999999998     47.674749999999989     49.217235000000002
C      45.066699999999997     48.120649999999998     47.918975000000003
C      49.394500000000001     48.150049999999993     47.896985000000001
C      49.672000000000004     49.000549999999990     46.729334999999999
C      49.018799999999992     48.391349999999989     45.585434999999997
C      48.025600000000004     47.419649999999990     45.585335000000001
C      49.972600000000007     48.216049999999996     49.122664999999998
C      50.721200000000003     49.427349999999990     49.673194999999993
C      52.165199999999992     49.377549999999999     46.851595000000003
C      50.980100000000000     49.822149999999993     46.903255000000001
C      47.981400000000001     47.181349999999995     50.593935000000002
C      49.577700000000000     47.277549999999991     50.322685000000000
C      47.589700000000001     48.604950000000002     51.042484999999999
C      48.095000000000006     46.028149999999997     44.980305000000001
H      48.843700000000005     45.130150000000000     45.155265000000000
H      50.489199999999990     50.511249999999990     49.688454999999998
H      52.228199999999994     48.379449999999991     46.477514999999997
H      50.930000000000000     49.090149999999994     50.795955000000006
H      47.055599999999998     45.662849999999992     45.092624999999998
H      43.032899999999998     48.960650000000001     50.008174999999994
H      45.166300000000000     47.669550000000001     51.249724999999998
H      43.098199999999999     48.902549999999991     47.373404999999998
H      50.105899999999998     48.199449999999999     45.080444999999997
H      51.788800000000002     49.269250000000000     49.612655000000004
H      50.980800000000009     50.869850000000000     47.027025000000002
H      52.967100000000002     50.098050000000001     47.368524999999998
H      47.511800000000001     46.435549999999992     51.333224999999999
H      50.011400000000002     46.318149999999989     50.271124999999998
H      49.904600000000009     47.705149999999989     51.153624999999991
H      44.409700000000001     48.322549999999993     45.363704999999996
H      47.251500000000000     48.627949999999998     52.122624999999999
H      46.872500000000002     49.052349999999990     50.237085000000008
H      48.630999999999993     49.370849999999990     50.887455000000003
H      48.077700000000000     46.268649999999994     43.877375000000001
O      45.357399999999998     48.141049999999993     45.548954999999999
