52

C      51.035749999999993     51.081400000000002     46.778684999999996
C      50.075049999999997     50.335200000000000     47.224175000000002
C      45.659450000000000     49.956900000000005     46.603435000000005
C      44.824649999999998     49.136700000000005     47.592894999999999
C      52.194449999999996     46.995600000000010     48.149225000000001
C      47.831750000000007     44.481300000000005     48.659814999999995
C      46.990250000000003     50.456600000000009     47.308935000000005
C      51.529850000000003     45.774400000000000     48.546794999999989
C      49.248250000000006     44.631799999999998     48.545764999999989
C      51.300750000000001     48.062600000000003     47.693465000000003
C      45.585450000000002     48.018799999999999     48.083155000000005
C      47.167549999999999     45.725200000000001     48.553455000000000
C      49.125650000000000     49.484400000000008     47.668585000000007
C      50.149650000000001     45.694600000000008     48.184275000000000
C      47.715049999999998     49.326000000000008     47.715125000000000
C      49.878350000000005     48.102600000000010     47.733635000000007
C      47.030850000000001     48.083200000000005     47.890945000000002
C      47.904850000000003     47.016300000000001     48.280914999999993
C      49.317349999999998     46.930599999999998     48.032114999999990
C      44.847349999999999     51.316200000000009     46.415675000000007
C      43.543750000000003     51.317300000000003     46.338335000000001
C      42.790550000000003     50.215299999999999     46.645915000000002
C      43.335650000000001     48.996600000000001     47.401775000000001
C      53.581650000000003     47.412700000000001     48.329224999999994
C      53.806950000000008     46.828400000000002     49.609134999999995
C      53.188850000000002     45.690800000000010     50.169604999999990
C      52.245449999999998     44.847300000000004     49.427885000000003
C      51.322750000000006     43.686300000000003     49.459694999999996
C      49.969550000000005     43.545200000000008     49.046394999999990
C      47.560150000000000     51.582399999999993     46.731115000000003
C      46.961450000000006     52.474899999999991     45.736225000000005
C      45.550050000000006     52.507000000000005     46.083674999999999
C      42.120350000000002     48.313400000000001     47.934684999999988
H      50.652450000000002     51.575200000000009     45.974074999999999
H      51.904750000000000     48.957900000000009     47.616534999999999
H      45.069550000000000     47.087500000000006     48.584594999999993
H      47.243050000000004     43.505000000000010     48.611684999999994
H      43.013750000000002     52.121799999999993     46.059524999999994
H      41.783350000000006     50.275400000000005     46.464044999999999
H      53.850050000000003     48.364500000000007     48.012574999999998
H      55.024650000000001     47.060200000000009     50.216705000000005
H      53.748849999999997     45.177900000000008     51.016405000000006
H      51.926549999999999     43.030100000000004     49.783635000000004
H      49.472349999999999     42.561900000000009     49.346035000000001
H      48.517450000000004     51.898600000000002     47.053354999999996
H      47.354850000000006     53.152799999999999     44.983594999999994
H      45.602150000000002     49.591100000000012     45.627084999999994
H      45.163350000000001     53.438099999999991     45.808345000000003
H      42.529750000000000     47.602800000000002     48.756105000000005
H      46.169150000000002     45.413300000000007     48.809155000000004
H      51.947550000000000     50.699300000000008     46.773165000000006
O      40.975349999999999     48.675600000000003     47.993695000000002
