84

C      43.121204999999989     53.240149999999993     42.097189999999991
C      43.617404999999991     53.841149999999999     40.842389999999995
C      42.590504999999993     48.450549999999993     46.692389999999989
C      51.096004999999991     45.300049999999999     47.852489999999989
C      49.983904999999993     45.715049999999998     48.590789999999998
C      52.254145000000008     44.427849999999999     52.350789999999989
C      52.290174999999991     44.758349999999993     48.532089999999997
C      50.071004999999985     45.733349999999994     49.990389999999991
C      52.932024999999996     44.338149999999999     51.107389999999995
C      52.058420999999996     44.536049999999996     49.946789999999993
C      51.084504999999993     45.162949999999995     50.830689999999990
C      50.907104999999987     45.244049999999994     46.456789999999998
C      50.053404999999998     46.410749999999993     46.047289999999990
C      48.760804999999991     46.745649999999998     46.746289999999988
C      48.738904999999988     46.039649999999995     47.937089999999998
C      52.178229999999999     45.171749999999996     45.633289999999988
C      51.952832000000001     45.349049999999998     44.178190000000001
C      51.206304999999986     46.518249999999995     43.970089999999999
C      50.217204999999993     46.983149999999995     44.752289999999988
C      53.266505000000009     44.386149999999994     47.711389999999994
C      53.281445000000005     44.417349999999999     46.257889999999989
C      47.438904999999991     47.506649999999993     46.486489999999989
C      52.904925000000006     44.734549999999999     43.298289999999994
C      53.750624999999999     43.381649999999993     43.569389999999999
C      52.632334999999998     43.886749999999999     53.702489999999997
C      54.495805000000004     44.086649999999999     50.997589999999988
C      52.920895000000002     42.243049999999997     54.126165800000003
C      54.396945000000002     42.136049999999997     54.602350000000001
C      41.670404999999988     50.158149999999999     45.183089999999993
C      48.260804999999991     52.456850000000003     44.390889999999999
C      42.748104999999995     49.382849999999998     45.507689999999997
C      47.583704999999995     51.631050000000002     45.287790000000001
C      41.843704999999986     51.140850000000000     44.118189999999998
C      47.568604999999991     52.654849999999996     43.131389999999996
C      43.992204999999998     49.506349999999998     44.909489999999991
C      46.555404999999993     50.576049999999995     44.963189999999997
C      43.171304999999990     51.259949999999989     43.595489999999998
C      46.289604999999995     51.966250000000002     43.068289999999990
C      44.256304999999998     50.709649999999996     44.176389999999998
C      45.693304999999995     51.251549999999995     44.048490000000001
C      45.252004999999997     48.700449999999996     45.381289999999993
C      46.295104999999992     49.440049999999999     45.738789999999995
C      45.257004999999992     47.312549999999995     45.724789999999999
C      47.720804999999984     53.402749999999997     41.844789999999989
C      46.362804999999994     46.747349999999997     46.380489999999995
H      54.116544999999988     43.841149999999999     48.234889999999993
H      42.111104999999995     53.626549999999995     42.307989999999990
H      44.590704999999986     53.277450000000002     40.529789999999991
H      43.565404999999998     54.943950000000001     40.552289999999999
H      53.947384999999997     42.712449999999997     42.864989999999992
H      41.611704999999986     47.699749999999995     46.617589999999993
H      42.127704999999992     48.644949999999994     47.842590000000001
H      48.987204999999989     46.015249999999995     50.389889999999994
H      49.312904999999986     47.595349999999996     44.445689999999999
H      47.829504999999997     46.281049999999993     48.247789999999995
H      53.739584999999991     42.728949999999998     44.357289999999992
H      54.569384999999997     44.105349999999994     43.689089999999993
H      50.912804999999992     47.707849999999993     42.584489999999988
H      51.926558999999997     44.363049999999994     54.659920000000000
H      53.389084999999994     44.532249999999998     54.060939400000002
H      55.058704999999989     44.987249999999996     51.471489999999989
H      54.840615000000000     43.039249999999996     51.259589999999989
H      52.202048999999988     42.089449999999999     55.019679000000011
H      52.582965000000002     41.381849999999993     53.532989999999998
H      55.236995000000007     42.348349999999996     53.809190000000001
H      54.601284999999990     41.056049999999999     55.107590000000002
H      54.385075000000001     42.779749999999993     55.470210000000009
H      54.704354999999993     44.444049999999997     49.968089999999989
H      40.763004999999993     50.378449999999994     45.747689999999992
H      49.280904999999990     52.812950000000001     44.791389999999993
H      48.093104999999994     51.793349999999990     46.220689999999991
H      41.059104999999988     51.915549999999996     43.549389999999988
H      45.563904999999991     52.449249999999992     42.338789999999989
H      44.356604999999988     46.635949999999994     45.656589999999994
H      47.014104999999986     53.178550000000001     40.974189999999993
H      46.414604999999995     45.779149999999994     46.585889999999992
H      43.451504999999997     47.993749999999999     46.986789999999999
H      54.126755000000003     44.071649999999998     45.791089999999997
N      51.256378599999991     45.166149999999995     52.145389999999992
N      43.610704999999996     52.224849999999989     42.765689999999992
O      53.142375000000001     45.125649999999993     42.190389999999994
O      51.529279000000002     46.976149999999997     42.742089999999990
O      48.642504999999986     54.199550000000002     41.812190000000001
O      47.450904999999992     48.836649999999999     46.384689999999992
