18

C      48.199649999999998     48.658099999999983     47.879049999999999
C      47.581350000000000     47.381399999999999     48.310650000000010
C      48.599750000000000     49.737600000000000     48.752549999999999
C      47.537450000000007     47.241100000000003     49.750850000000000
C      48.215750000000000     49.004700000000000     46.452450000000013
C      47.375650000000007     46.376599999999996     47.313950000000006
C      48.074849999999998     49.734399999999994     50.024950000000004
C      47.731050000000010     48.406399999999991     50.425650000000005
C      47.533349999999999     48.132399999999990     45.548250000000010
C      47.108150000000009     46.839299999999994     46.052450000000007
H      49.241950000000003     50.582799999999992     48.238550000000004
H      47.166449999999998     46.416399999999996     50.109050000000011
H      48.648450000000011     49.942700000000002     46.198150000000012
H      47.380350000000007     45.411000000000001     47.933850000000007
H      48.183450000000008     50.588999999999999     50.793150000000011
H      47.241849999999999     48.180899999999994     51.537250000000000
H      47.716350000000006     48.290899999999993     44.462750000000000
H      46.758049999999997     46.126499999999993     45.206550000000007
