42

C      53.578149999999994     45.441400000000002     44.948699999999988
C      49.376750000000001     49.775400000000012     47.309799999999996
C      49.597750000000005     49.302000000000000     48.604700000000008
C      44.620549999999994     50.694900000000011     48.205200000000005
C      44.986750000000001     50.636500000000005     49.586699999999993
C      48.036950000000004     50.059500000000007     46.702399999999997
C      48.642250000000004     49.847799999999999     49.521600000000007
C      45.692549999999997     50.882200000000005     47.213700000000003
C      46.371750000000006     50.325900000000004     50.075699999999998
C      46.956350000000000     50.409500000000008     47.718500000000006
C      47.275949999999995     50.392700000000005     49.132300000000001
C      50.227550000000008     49.166500000000006     46.351200000000006
C      50.670450000000002     47.777700000000003     46.718500000000006
C      51.166150000000002     47.432300000000005     48.035800000000009
C      50.345250000000007     48.025500000000001     49.047299999999993
C      43.230649999999997     50.467300000000009     47.799599999999998
C      42.641949999999994     50.043800000000012     48.996600000000001
C      44.057550000000006     50.462800000000009     50.680599999999998
C      51.194950000000006     49.728100000000005     45.500700000000009
C      51.971850000000003     49.034900000000000     44.394899999999993
C      51.868350000000007     47.623100000000015     44.684600000000003
C      51.093750000000000     46.952400000000004     45.626300000000001
C      47.924750000000003     49.748700000000007     45.376599999999996
C      52.904650000000004     46.554100000000005     44.371499999999997
H      53.186650000000000     44.731900000000003     45.735799999999998
H      48.619250000000008     49.087600000000002     50.318600000000004
H      45.355750000000000     50.843900000000012     46.156499999999994
H      46.477249999999998     49.983000000000004     51.152199999999993
H      51.490150000000000     46.431300000000014     48.180800000000005
H      50.174250000000001     47.527700000000010     50.090800000000002
H      42.755049999999997     50.300100000000008     46.786599999999993
H      41.808049999999994     49.481100000000005     48.517200000000003
H      51.046550000000011     50.796000000000006     45.677400000000006
H      52.657250000000005     49.651600000000009     43.808899999999994
H      51.126150000000010     45.887099999999997     45.669799999999995
H      43.615949999999998     51.268099999999997     52.354299999999995
H      49.103549999999998     49.802799999999998     45.076999999999998
H      47.282750000000007     50.039200000000001     44.608599999999996
H      53.498649999999998     47.256300000000003     43.645700000000005
H      54.191950000000006     44.841200000000008     44.298199999999994
N      42.918450000000007     50.185900000000004     50.245800000000003
O      44.434849999999997     50.863599999999998     51.924800000000005
