5

C      47.974799999999995     47.770399999999995     47.986862999999985
H      48.306500000000000     48.639199999999995     47.212784999999997
H      48.888000000000005     47.360800000000005     48.195432999999994
H      47.598500000000001     48.260200000000005     48.787215000000003
H      47.111999999999995     47.391699999999993     47.539484999999999
