58

C      47.152079999999998     47.310049999999997     49.096149999999994
C      48.168380000000006     46.971850000000003     50.061690000000006
C      50.323079999999997     47.940950000000001     45.450780000000002
C      51.389980000000001     47.847250000000003     46.397490000000005
C      47.335080000000005     47.365850000000009     47.628180000000000
C      49.487680000000005     46.861350000000002     49.600810000000003
C      48.957080000000005     47.795349999999999     46.007000000000005
C      51.132580000000004     47.712650000000004     47.855090000000004
C      48.688279999999999     47.505449999999996     47.324490000000004
C      49.782480000000000     47.389650000000003     48.236570000000000
C      45.803780000000003     47.355950000000007     49.535159999999998
C      45.633480000000006     47.162850000000006     50.915800000000011
C      46.528380000000006     47.325150000000008     51.991589999999995
C      47.941980000000008     47.324050000000000     51.502690000000001
C      50.501880000000007     48.136049999999997     44.023808000000002
C      51.849480000000007     48.495050000000006     43.790666999999999
C      52.664780000000000     48.074850000000005     45.898180000000004
C      44.707350000000005     47.238150000000005     48.505310000000001
C      43.455940000000005     47.072749999999999     49.026020000000003
C      43.417030000000004     47.205350000000003     50.504979999999996
C      44.270430000000005     46.868250000000003     51.533080000000005
C      44.878700000000002     47.161750000000005     47.028770000000002
C      46.206380000000003     47.072350000000000     46.654830000000004
C      46.552580000000006     47.556950000000001     45.239139999999999
C      48.004180000000005     47.415450000000007     44.943880000000000
C      50.567580000000000     46.391750000000002     50.509790000000002
C      49.858880000000006     45.797950000000000     51.828720000000004
C      48.988880000000002     46.861550000000008     52.609890000000000
C      46.067680000000003     48.690650000000005     44.453070000000004
C      46.569280000000006     50.079149999999998     44.552379999999999
C      44.154070000000004     46.499350000000007     45.853300000000004
C      52.082880000000003     48.358450000000005     48.742430000000006
H      46.179480000000005     47.425450000000012     52.921730000000004
H      49.774380000000001     48.325850000000003     43.218840000000000
H      53.633479999999999     47.877350000000007     46.384590000000003
H      42.693870000000004     46.673250000000003     48.359830000000002
H      42.366520000000001     47.566150000000007     50.712250000000004
H      44.065110000000004     46.948750000000004     52.576270000000001
H      44.596010000000000     46.218450000000004     44.731270000000002
H      48.147579999999998     46.983450000000005     43.662007000000003
H      51.093780000000002     47.378950000000003     50.764070000000004
H      50.877779999999994     45.307850000000002     49.907949999999992
H      49.219780000000007     45.070250000000001     51.424730000000004
H      50.666880000000013     45.219850000000008     52.348790000000001
H      49.854379999999999     47.582350000000005     52.588569999999997
H      48.756380000000000     46.202350000000003     53.426200000000001
H      47.137480000000004     50.062250000000006     45.459630000000004
H      46.676980000000007     50.409649999999999     43.513412000000002
H      45.580280000000002     50.929749999999999     44.639840000000000
H      52.667780000000000     49.671750000000003     42.616099999999996
H      43.626920000000005     45.558250000000001     46.419340000000005
H      43.028280000000002     46.626650000000005     45.685279999999999
H      52.317680000000003     49.374150000000000     48.492680000000000
H      52.942380000000007     47.534250000000000     48.474930000000001
H      51.906080000000010     48.544449999999998     49.826410000000003
N      52.803680000000007     48.358450000000005     44.657330000000002
O      45.096770000000006     48.766150000000010     43.762762000000002
O      51.825080000000007     49.064650000000000     42.573799999999999
