6

C      47.951850000000000     47.931199999999990     48.554539999999989
C      48.110849999999999     47.993800000000000     47.266169999999995
H      48.575249999999997     48.755199999999995     49.333539999999999
H      47.076449999999994     47.244800000000005     48.706659999999992
H      47.448850000000007     47.463599999999992     46.778640000000003
H      48.923550000000006     48.571300000000001     46.666460000000001
