18

C      47.468549999999993     48.303459999999987     47.098049999999986
C      48.428550000000001     47.650529999999996     48.040849999999999
C      46.729550000000003     47.406900000000000     46.259149999999998
C      49.022749999999988     46.436229999999995     47.455149999999996
C      46.932549999999992     49.578820000000000     47.525550000000003
C      48.672449999999998     48.303069999999998     49.291350000000001
C      47.068049999999999     46.047949999999993     46.034249999999993
C      48.452950000000001     45.748389999999993     46.469050000000003
C      47.080050000000000     50.029719999999998     48.967349999999989
C      47.948449999999994     49.400519999999993     49.785849999999989
H      45.926050000000004     47.757309999999997     45.743749999999999
H      50.073949999999996     46.082249999999995     47.702350000000003
H      46.295249999999996     50.029419999999995     46.918249999999993
H      49.314549999999997     47.746779999999994     49.993649999999995
H      46.621150000000000     45.410949999999993     45.121850000000002
H      48.842249999999993     44.995079999999994     45.790749999999996
H      46.827449999999999     51.004920000000006     49.259250000000002
H      48.032449999999997     49.626920000000005     50.878149999999998
