18

C      47.899749999999990     47.780949999999983     48.379949999999987
C      48.091749999999998     48.480049999999991     47.062150000000003
C      48.910049999999998     48.084049999999991     49.436350000000004
C      49.393349999999998     48.901249999999990     46.653949999999995
C      46.600250000000003     47.321449999999999     48.535750000000007
C      46.946449999999999     48.736849999999990     46.271249999999995
C      50.121949999999998     48.465849999999989     48.864750000000001
C      50.325649999999996     49.194549999999992     47.720349999999996
C      45.708649999999999     46.989350000000002     47.484250000000003
C      45.820550000000004     47.786850000000001     46.418450000000007
H      48.661649999999995     47.549549999999996     50.685050000000004
H      49.289649999999995     49.307749999999999     45.537649999999999
H      46.183250000000001     46.950449999999989     49.477450000000005
H      46.873350000000002     49.091349999999991     45.314949999999996
H      50.771349999999998     48.737749999999991     49.784450000000007
H      51.132649999999998     49.933650000000000     47.414450000000002
H      44.867350000000002     46.066350000000000     47.573049999999995
H      45.255549999999999     47.397849999999991     45.459550000000007
