18

C      48.704250000000002     47.758249999999990     48.116049999999987
C      47.515250000000009     47.722750000000005     47.405149999999992
C      48.686950000000010     47.281350000000003     49.459249999999997
C      46.489850000000004     46.937449999999998     47.994850000000000
C      49.506550000000004     49.006950000000003     47.957249999999988
C      47.761150000000001     48.276449999999997     46.065649999999991
C      47.598050000000001     46.752350000000007     50.027183699999995
C      46.374549999999999     46.243250000000003     49.308249999999987
C      49.579250000000002     49.729450000000000     46.748249999999999
C      48.784750000000003     49.219949999999997     45.710749999999990
H      49.356450000000009     47.750050000000002     50.191704000000001
H      45.736350000000002     46.640850000000000     47.303649999999990
H      50.292949999999990     49.399749999999997     48.832349999999991
H      46.921450000000007     47.783749999999998     45.596849999999989
H      47.442549999999997     46.587750000000000     51.130050000000011
H      45.707050000000010     45.360550000000003     49.543749999999989
H      50.149550000000005     50.639449999999997     46.662749999999988
H      48.769450000000006     50.000950000000003     44.869949999999989
