7

C      48.385549999999995     47.702999999999996     47.146649999999994
C      47.438049999999997     48.436099999999996     47.958949999999994
H      46.608849999999997     48.076499999999996     48.559450000000005
H      49.391150000000003     48.287300000000002     46.571450000000006
H      48.455850000000005     46.549300000000002     47.178350000000002
H      48.638050000000000     49.191800000000001     49.428549999999994
O      47.979050000000008     49.450699999999998     48.799849999999999
