18

C      48.491649999999993     47.819049999999997     48.457149999999992
C      47.392249999999990     48.753450000000001     48.073949999999996
C      48.326750000000004     46.482650000000007     48.183149999999998
C      46.281449999999992     48.260650000000012     47.228749999999998
C      49.693249999999992     48.414550000000006     48.984650000000002
C      47.087450000000004     49.949950000000001     48.815049999999999
C      47.193049999999999     45.879050000000007     47.502849999999995
C      46.358850000000004     46.903450000000007     46.900949999999995
C      49.655449999999988     49.858550000000008     48.989649999999997
C      48.318249999999992     50.429450000000003     49.358549999999994
H      49.196849999999984     45.813650000000010     48.518149999999999
H      45.310050000000004     48.732750000000010     47.086449999999999
H      50.529749999999993     47.710850000000008     49.045449999999988
H      46.224049999999991     50.137550000000005     49.410950000000000
H      47.234949999999998     44.767150000000001     47.435949999999998
H      45.863249999999994     46.448650000000001     45.998249999999999
H      50.689949999999996     50.538550000000001     48.673749999999998
H      48.235149999999990     51.232849999999999     50.001750000000001
