5

C      47.969099999999997     47.899799999999999     48.180939999999993
H      47.641099999999994     48.771100000000004     48.813360000000003
H      47.759299999999996     47.723500000000001     47.186639999999997
H      47.122900000000001     47.228899999999996     48.234780000000001
H      48.877099999999999     47.312899999999999     48.729390000000009
