18

C      48.698525999999980     48.795749999999991     47.238050000000001
C      47.494304999999997     47.992149999999995     47.082650000000001
C      49.904094999999991     47.937849999999997     47.058750000000003
C      47.370604999999983     46.566249999999997     47.041250000000005
C      48.622192999999989     49.860849999999999     48.213049999999996
C      46.270705000000007     48.848950000000002     46.977350000000001
C      49.793144999999981     46.572649999999996     46.991749999999996
C      48.539521999999991     45.881749999999997     46.856250000000003
C      47.363504999999982     50.367249999999999     48.582949999999997
C      46.109304999999978     49.932649999999995     47.965149999999994
H      50.733294999999984     48.519949999999994     47.201949999999997
H      46.573805000000007     45.970250000000000     47.138149999999996
H      49.677384999999987     50.022549999999995     48.461150000000004
H      45.355804999999989     48.337850000000003     47.102350000000001
H      50.673984999999988     45.825649999999996     47.244649999999993
H      48.359403999999991     44.801249999999996     47.102150000000009
H      47.246204999999989     51.198750000000004     49.143749999999997
H      45.266705000000016     50.542450000000002     47.997149999999991
