18

C      47.968449999999990     47.344899999999988     47.613750000000003
C      48.408150000000006     48.642199999999988     48.285449999999997
C      48.462750000000014     46.100399999999993     48.289050000000003
C      49.022950000000009     48.899900000000002     49.553049999999999
C      47.474850000000004     47.388799999999989     46.373649999999998
C      47.747550000000004     49.879399999999997     48.087850000000003
C      49.338550000000012     46.287599999999998     49.315150000000003
C      49.557050000000004     47.518499999999989     49.998350000000002
C      47.086150000000004     48.742499999999993     46.118650000000002
C      46.857150000000004     49.930199999999999     46.969050000000010
H      48.062449999999998     45.155799999999999     48.267049999999998
H      48.976749999999996     49.737599999999986     50.268850000000000
H      47.354550000000003     46.515499999999996     45.784750000000003
H      46.353650000000002     50.844200000000001     46.950150000000008
H      49.646349999999998     45.331599999999995     49.956950000000006
H      49.579750000000004     47.340999999999994     50.953749999999999
H      46.680650000000000     48.800899999999999     45.046250000000001
H      47.935950000000005     50.789800000000000     48.700749999999999
