6

C      48.594349999999999     48.038849999999996     47.704349999999984
C      47.400050000000007     48.000649999999993     48.317250000000001
H      48.815550000000002     47.107950000000002     47.131850000000000
H      49.244349999999997     48.892049999999998     47.632849999999991
H      46.940850000000005     48.880249999999990     48.765649999999994
H      46.755650000000003     47.354849999999999     48.868150000000000
