100

C      49.304999999999986     44.004330000000003     45.755999999999993
C      49.524599999999992     42.830740000000006     46.483600000000003
C      46.938699999999997     46.101870000000005     49.410300000000007
C      47.158599999999993     44.793490000000006     50.115800000000007
C      48.414699999999996     45.086880000000008     46.149700000000003
C      48.332199999999993     42.399790000000010     47.268400000000007
C      46.853299999999997     46.019910000000010     48.004800000000003
C      47.554599999999994     43.638190000000009     49.315600000000003
C      47.675099999999993     44.943140000000007     47.328199999999995
C      47.915399999999998     43.678610000000006     47.944900000000004
C      50.333099999999995     44.064560000000000     44.840700000000005
C      51.024299999999997     42.909000000000006     44.655800000000006
C      51.151399999999995     41.571630000000006     45.229200000000006
C      50.121600000000001     41.438314000000005     46.273100000000007
C      46.741499999999995     47.181510000000003     50.328100000000006
C      46.646699999999996     46.811640000000011     51.734499999999997
C      46.627999999999993     45.480420000000009     52.273799999999994
C      47.051299999999998     44.362940000000009     51.426500000000004
C      47.080799999999996     47.660740000000011     53.072000000000003
C      49.969699999999996     40.430650000000021     47.284100000000009
C      50.625599999999991     39.144050000000028     47.040499999999994
C      45.939899999999994     45.156420000000011     53.605300000000014
C      47.546599999999998     41.141919000000009     47.593800000000002
C      47.516299999999994     48.534980000000004     42.590200000000003
C      49.058199999999992     52.779050000000012     45.208000000000006
C      48.476599999999998     51.536450000000016     45.368600000000001
C      47.864499999999992     53.485950000000017     52.452100000000002
C      46.869299999999996     52.428350000000009     52.494300000000010
C      49.325899999999990     53.479849999999999     46.580400000000012
C      47.837399999999995     50.872350000000012     46.556800000000003
C      48.905499999999996     53.366650000000007     51.510700000000014
C      46.707799999999992     51.616950000000010     51.363299999999995
C      49.293399999999998     53.256950000000010     49.035200000000003
C      47.361399999999996     51.199050000000000     48.908700000000010
C      48.912399999999998     52.846450000000004     47.802300000000002
C      48.166299999999993     51.449450000000013     47.801200000000001
C      48.766299999999994     52.666450000000012     50.281600000000012
C      47.554499999999997     51.786250000000010     50.197600000000001
C      49.567699999999995     53.641950000000008     44.093300000000006
C      49.054499999999997     52.994450000000001     42.899900000000002
C      48.580799999999996     51.658950000000004     42.719700000000003
C      48.465499999999992     50.933850000000007     43.988600000000005
C      50.444000000000003     54.962250000000012     44.139800000000001
C      46.602099999999993     50.028400000000005     46.631700000000009
C      45.320099999999996     50.271520000000010     46.069100000000006
C      48.709299999999992     49.503640000000004     43.658100000000005
C      49.991699999999994     54.491849999999999     51.642400000000002
C      49.745799999999988     55.925050000000013     51.762799999999999
C      45.338499999999996     51.419450000000012     45.295900000000003
C      44.657799999999995     52.469850000000008     45.390100000000004
C      50.464899999999986     56.825250000000011     51.328500000000005
C      49.514099999999999     55.462750000000000     45.451400000000007
C      46.609099999999998     48.917800000000014     47.599400000000003
H      47.275699999999993     42.616490000000006     49.847400000000007
H      50.627499999999998     44.879820000000009     44.153500000000001
H      51.860799999999998     43.308290000000007     43.834800000000001
H      52.048000000000002     40.789442000000008     45.309300000000000
H      46.358299999999993     48.262330000000006     49.994700000000002
H      47.136799999999994     43.399220000000007     51.917700000000011
H      47.671999999999997     48.691700000000012     53.124800000000008
H      50.520299999999992     38.014949999999999     47.539600000000007
H      51.843800000000002     38.943150000000010     46.714100000000002
H      47.742499999999993     46.184210000000007     44.572900000000004
H      46.643899999999995     44.532290000000010     54.283000000000001
H      44.965899999999998     44.805130000000005     53.522500000000001
H      45.380899999999997     46.064930000000011     53.931600000000003
H      46.878699999999995     41.043892000000007     48.451700000000002
H      47.374699999999997     40.443450000000020     46.722600000000007
H      51.736299999999986     54.880650000000017     44.255600000000001
H      46.481799999999993     48.394430000000007     43.269300000000001
H      47.808199999999992     47.683190000000010     41.964500000000001
H      48.322799999999994     48.994870000000006     44.529500000000006
H      48.103599999999993     54.185850000000016     53.362600000000000
H      46.237999999999992     52.250150000000005     53.372700000000009
H      46.352999999999994     50.588750000000005     51.202799999999996
H      49.935099999999998     54.165550000000010     49.053200000000004
H      46.386399999999995     50.537649999999999     48.706600000000002
H      49.349699999999999     53.652650000000008     42.014500000000005
H      48.599199999999996     51.178650000000005     41.716999999999999
H      50.350300000000004     55.286050000000010     43.156300000000002
H      44.474899999999998     49.721210000000013     45.957700000000003
H      47.538899999999998     49.275300000000001     41.727500000000006
H      50.472799999999992     57.985050000000001     51.575900000000004
H      43.951999999999998     52.607450000000014     46.362800000000000
H      44.828399999999995     53.425550000000015     44.919200000000004
H      48.818199999999997     56.351550000000003     52.453000000000003
H      51.615499999999997     56.835050000000010     51.646500000000003
H      49.848699999999994     56.584450000000004     45.647100000000002
H      48.445899999999995     55.239750000000008     44.906300000000002
H      45.716799999999992     49.068050000000014     48.380800000000008
H      45.888599999999997     50.374560000000010     44.044600000000003
H      47.540899999999993     48.464010000000016     47.867599999999996
H      49.773799999999994     49.320920000000008     43.876600000000003
N      49.650599999999997     54.760950000000008     46.699500000000000
O      46.705499999999994     47.376540000000006     54.172400000000003
O      48.765399999999993     40.378950000000010     48.096800000000002
O      48.146099999999997     46.259770000000017     45.465500000000006
O      51.147800000000004     54.174550000000011     51.538900000000012
O      46.232599999999998     51.327950000000008     44.288400000000003
S      45.806899999999992     47.072140000000005     47.044800000000002
