38

C      47.118299999999991     43.329349999999991     47.502749999999992
C      48.900399999999998     44.448450000000008     50.962250000000004
C      47.075099999999999     47.144750000000002     48.328150000000001
C      46.411600000000000     47.901949999999999     49.306350000000002
C      48.046399999999998     51.223849999999999     45.807549999999999
C      47.660299999999999     52.002750000000006     46.968449999999997
C      47.922400000000003     47.515850000000000     47.174450000000000
C      46.810899999999997     49.275450000000006     49.482450000000000
C      48.307200000000002     49.727649999999997     45.820050000000002
C      47.097600000000007     51.116050000000001     47.889450000000004
C      47.767600000000009     49.032850000000010     46.940049999999999
C      47.265999999999998     49.693250000000006     48.072550000000000
C      46.983399999999996     45.684750000000008     48.790650000000007
C      46.698299999999996     45.706150000000008     50.218150000000001
C      47.367700000000006     44.894950000000009     51.410249999999998
C      46.127100000000006     46.988650000000007     50.420449999999995
C      48.104300000000002     46.169750000000008     46.505450000000003
C      49.303699999999999     45.877549999999999     45.731349999999999
C      47.039200000000001     44.439650000000000     48.120550000000001
C      49.151100000000007     49.446950000000001     44.583950000000002
H      48.613500000000009     43.481150000000000     50.788550000000001
H      48.002699999999997     43.154650000000004     46.936050000000002
H      46.267000000000003     42.955749999999995     46.889350000000000
H      48.740800000000000     51.754950000000008     45.189749999999997
H      47.762499999999996     53.044250000000005     46.978749999999998
H      46.469699999999996     51.332750000000004     48.722649999999994
H      49.811799999999998     44.563649999999996     51.786850000000008
H      46.660800000000002     44.052949999999996     51.482949999999995
H      47.407600000000009     45.566450000000003     52.281950000000002
H      49.535000000000004     46.707549999999998     44.852350000000001
H      48.831200000000003     48.470950000000002     44.226549999999996
H      47.514199999999995     45.297950000000000     46.560650000000003
H      49.792600000000000     44.882649999999998     45.924950000000003
H      49.340399999999995     45.168650000000000     50.199750000000002
H      45.865500000000004     47.284649999999999     51.470750000000002
H      50.134499999999996     49.097949999999997     44.665250000000000
H      49.353299999999997     50.159050000000008     43.718049999999998
O      47.088600000000007     49.860650000000007     50.515549999999998
