18

C      47.506999999999984     46.981699999999989     47.833049999999993
C      47.993099999999998     48.048700000000011     48.717749999999995
C      48.373800000000003     46.152900000000002     47.075350000000000
C      49.338899999999995     48.225399999999993     49.026550000000000
C      46.080600000000004     47.041600000000003     47.545349999999999
C      47.054699999999997     49.144199999999998     49.144049999999993
C      49.721800000000002     46.315899999999999     47.436449999999994
C      50.234300000000005     47.347600000000000     48.299849999999992
C      45.439300000000003     48.312600000000003     47.592050000000000
C      46.073099999999997     49.425699999999992     48.216749999999990
H      51.332599999999999     47.757899999999992     48.088650000000001
H      48.132400000000004     45.664299999999997     46.188350000000000
H      45.747599999999991     46.230199999999996     46.945749999999990
H      47.485500000000002     49.704999999999998     49.811650000000000
H      50.554999999999993     45.958600000000004     46.717149999999990
H      50.157799999999995     48.830800000000011     49.406649999999999
H      44.667400000000001     48.691099999999992     46.881249999999994
H      45.521500000000003     50.335700000000003     48.644549999999995
