18

C      47.531699999999987     47.458999999999989     48.401799999999994
C      48.501000000000005     48.344199999999994     47.713700000000003
C      46.167099999999991     47.250200000000000     48.264000000000010
C      47.961500000000001     49.126299999999993     46.737200000000001
C      48.053399999999996     46.409399999999998     49.244900000000001
C      49.974699999999999     48.099700000000006     47.670800000000000
C      45.567999999999998     48.216200000000001     47.378000000000000
C      46.533299999999997     49.097799999999999     46.623500000000007
C      49.451300000000003     46.152600000000000     49.231000000000009
C      50.441999999999993     46.889499999999998     48.384000000000000
H      45.699900000000000     46.437599999999996     48.766000000000005
H      48.309299999999993     50.030799999999999     46.244399999999999
H      47.559299999999993     45.969200000000001     50.101900000000001
H      50.601799999999997     48.639200000000010     46.980400000000003
H      44.537399999999991     48.023900000000005     47.087900000000005
H      46.083599999999990     49.664299999999990     45.757599999999996
H      49.766499999999994     46.003099999999996     50.242400000000004
H      51.462600000000009     46.367399999999996     48.276400000000010
