18

C      48.380549999999999     48.055700000000002     48.400649999999999
C      47.428280000000001     47.750799999999998     47.297650000000004
C      49.895709999999994     47.886300000000006     48.470450000000007
C      48.456540000000004     47.429900000000004     46.333350000000003
C      47.748180000000005     48.232600000000005     49.643550000000012
C      46.051600000000008     47.648600000000002     47.434650000000005
C      50.753479999999996     47.689400000000006     47.436650000000007
C      49.823909999999998     47.403599999999997     46.356050000000003
C      46.360720000000001     47.888900000000007     49.682650000000002
C      45.389939999999996     47.867400000000004     48.651750000000000
H      50.344000000000008     47.884100000000004     49.541750000000000
H      47.916620000000009     47.452399999999997     45.369750000000003
H      48.370230000000006     48.705599999999990     50.562249999999999
H      45.258669999999995     47.413700000000006     46.545750000000005
H      51.701279999999997     47.893200000000007     47.307950000000005
H      49.996729999999999     47.294400000000010     45.389850000000003
H      45.933760000000007     48.106700000000004     50.630249999999997
H      44.298720000000003     47.868600000000001     48.997450000000008
