18

C      47.996049999999990     48.619749999999996     47.675079999999994
C      47.521950000000004     47.233450000000005     48.005480000000006
C      49.013350000000003     48.734950000000005     46.694380000000010
C      47.351050000000001     46.335950000000004     46.893479999999997
C      47.666049999999998     49.582450000000001     48.698480000000004
C      47.057850000000002     46.917750000000005     49.318880000000007
C      48.511350000000007     47.899950000000004     45.640880000000010
C      47.705150000000003     46.764350000000007     45.601280000000003
C      46.688150000000007     49.257350000000002     49.677280000000010
C      46.703249999999997     47.962650000000004     50.278980000000004
H      49.708950000000002     49.421450000000000     46.475080000000005
H      46.862250000000003     45.296950000000002     46.987679999999997
H      48.074250000000006     50.703049999999998     48.598180000000013
H      46.350250000000003     46.114450000000005     49.524080000000012
H      48.757149999999996     48.313450000000003     44.617210000000000
H      47.445450000000008     46.431750000000008     44.578620000000001
H      46.736249999999998     50.212650000000004     50.385280000000009
H      46.291049999999998     47.790550000000003     51.421379999999999
