7

C      47.752999999999993     47.505949999999991     48.522699999999993
C      48.529799999999994     48.724850000000004     47.697500000000005
H      46.695499999999996     47.566649999999996     49.116000000000000
H      48.831199999999995     49.055949999999996     48.650999999999996
H      49.304500000000004     48.117449999999991     47.135499999999993
H      47.816299999999998     49.271850000000001     46.884000000000000
O      48.557699999999997     46.728149999999999     48.985699999999994
