18

C      47.351249999999993     47.017149999999987     47.741899999999994
C      48.583550000000002     47.837850000000003     47.517499999999998
C      47.165949999999995     45.885549999999995     48.622599999999991
C      49.662149999999997     47.037149999999997     47.993499999999997
C      46.415750000000003     47.706750000000014     47.032600000000002
C      48.616450000000000     49.277950000000004     47.024299999999997
C      48.222549999999998     45.485250000000008     49.447599999999994
C      49.423150000000007     46.102750000000000     49.060099999999991
C      46.435150000000007     48.801050000000004     46.102499999999992
C      47.460750000000004     49.850650000000002     46.394899999999993
H      46.172150000000002     45.556049999999999     48.890299999999996
H      50.699650000000005     47.353550000000013     47.912199999999999
H      45.300349999999995     47.519549999999995     47.096199999999996
H      49.317050000000009     49.917850000000001     47.453000000000003
H      47.996150000000000     44.926550000000006     50.356300000000005
H      50.179649999999995     46.379549999999995     49.739499999999992
H      45.425449999999998     48.976250000000007     45.643699999999995
H      47.519350000000003     51.073449999999994     46.096299999999999
