17

C      48.990949999999991     47.958749999999995     46.738649999999993
C      49.719050000000010     47.350450000000009     47.892149999999994
C      48.951050000000002     46.992750000000001     48.980550000000001
C      47.576349999999998     47.255049999999997     48.967049999999993
C      46.891350000000003     47.862049999999996     47.635849999999998
C      50.294250000000005     48.377549999999999     46.058349999999997
C      45.649250000000002     48.270150000000001     47.627649999999996
C      46.930850000000000     47.286249999999995     50.236550000000001
H      50.805849999999992     47.097450000000009     47.699249999999999
H      49.340649999999997     46.701549999999997     49.872650000000000
H      50.916150000000002     47.944749999999999     45.035249999999998
H      45.581249999999997     49.298450000000003     47.229549999999996
H      44.858649999999997     48.106549999999999     48.379049999999999
H      47.841149999999999     47.285350000000008     50.964750000000002
H      46.048850000000002     47.728549999999998     50.562549999999995
N      47.707349999999998     48.158550000000005     46.675350000000002
O      51.141350000000003     49.240150000000014     46.303950000000000
