42

C      48.395799999999987     47.051199999999994     48.908349999999992
C      49.215199999999996     48.170299999999997     48.696150000000003
C      45.642799999999994     50.656799999999990     50.634850000000000
C      47.217799999999997     47.181999999999988     49.871849999999995
C      48.869999999999990     49.511399999999995     49.309950000000001
C      45.616799999999998     49.202799999999996     50.634050000000002
C      46.912099999999995     51.014899999999997     50.311850000000007
C      46.721399999999996     48.518999999999991     49.837350000000001
C      47.573999999999998     49.635399999999990     49.932050000000004
C      48.821199999999990     45.823599999999999     48.296750000000003
C      50.080099999999995     45.830399999999997     47.458050000000000
C      50.830600000000004     47.026199999999989     47.265749999999997
C      50.247899999999987     48.295499999999990     47.687249999999999
C      47.860599999999991     44.785499999999999     48.521649999999994
C      48.346499999999992     43.599299999999999     47.907449999999997
C      49.654399999999995     43.512299999999996     47.250950000000003
C      50.511399999999995     44.565699999999993     46.963149999999999
C      46.872499999999995     44.710200000000000     49.635549999999995
C      46.601799999999997     45.944899999999990     50.314049999999995
C      51.564999999999998     47.070299999999989     46.008849999999995
C      52.123599999999996     48.302899999999994     45.536549999999998
C      51.823399999999992     49.552399999999992     45.946550000000002
C      50.829899999999995     49.466099999999997     47.016249999999999
C      50.759399999999992     50.645899999999983     47.880849999999995
C      47.483499999999992     52.383200000000002     50.487150000000000
C      44.453299999999999     48.303499999999985     50.730649999999997
C      49.633799999999994     50.718599999999995     48.765950000000004
H      44.629799999999996     51.345100000000002     50.821449999999999
H      47.503299999999996     42.974499999999992     47.777850000000001
H      50.133499999999998     42.519199999999998     47.068249999999999
H      46.969899999999996     43.673800000000000     50.113149999999990
H      45.894399999999990     46.032899999999998     51.231150000000000
H      51.872599999999991     46.289299999999997     45.306150000000002
H      52.655400000000000     48.263199999999998     44.768850000000000
H      52.044100000000000     50.393599999999992     45.388449999999999
H      52.274699999999996     43.789199999999994     46.410349999999994
H      44.451200000000000     47.385700000000000     50.537450000000000
H      43.344600000000000     48.212299999999985     51.199250000000006
H      49.478200000000001     51.436499999999995     49.557950000000005
H      51.516899999999993     51.704099999999983     47.501949999999994
O      47.841499999999996     53.480800000000002     50.574950000000001
O      51.684799999999996     44.639099999999999     46.155450000000002
