18

C      47.777304999999991     48.621249999999996     48.388699999999993
C      47.890855000000002     47.592950000000002     47.201899999999995
C      46.567554999999999     48.939450000000008     49.032200000000003
C      46.552664999999998     47.009950000000003     47.006699999999995
C      48.876104999999995     49.174949999999995     49.077100000000002
C      49.258825000000002     47.450350000000000     46.935900000000004
C      45.384824999999999     48.664550000000006     48.324900000000000
C      45.425825000000003     47.921050000000008     47.138300000000001
C      50.101405000000000     48.874350000000007     48.629999999999995
C      50.387095000000002     47.895949999999999     47.579300000000003
H      46.414924999999997     49.610550000000003     49.989500000000000
H      46.468584999999997     46.148150000000001     46.179400000000001
H      48.544565000000006     49.851849999999999     49.951400000000007
H      49.386505000000000     46.681049999999999     46.010500000000000
H      44.706415000000000     49.355350000000001     48.863399999999999
H      44.621584999999996     47.831550000000007     46.399500000000003
H      50.964415000000002     49.749949999999998     48.989500000000007
H      51.378415000000004     47.583449999999999     47.291399999999996
