18

C      49.019699999999993     48.667549999999991     48.308349999999990
C      48.009599999999999     47.466949999999997     48.221049999999998
C      50.404399999999995     48.524450000000002     48.365049999999989
C      48.402699999999996     46.196350000000002     48.142549999999993
C      48.423800000000000     49.883049999999997     48.657549999999993
C      46.640799999999999     47.663550000000001     48.112349999999999
C      50.620500000000000     47.257649999999998     47.573349999999998
C      49.842700000000008     46.063850000000002     47.963349999999998
C      47.085400000000000     49.911450000000002     48.936249999999994
C      46.146400000000000     48.887750000000004     48.617650000000005
H      51.018100000000004     49.422550000000008     48.273249999999997
H      47.648299999999999     45.465450000000004     48.240749999999998
H      46.635300000000001     50.767850000000003     49.450949999999999
H      46.113299999999995     46.673549999999999     47.828949999999999
H      50.153099999999995     47.116750000000003     46.549050000000001
H      50.273200000000003     45.078949999999999     48.439249999999994
H      49.034700000000001     50.921050000000001     48.870849999999997
H      44.981899999999996     49.123250000000006     48.439549999999990
