5

C      48.189699999999995     48.201749999999990     47.994049999999987
H      48.866399999999999     48.437649999999998     47.313849999999995
H      47.133600000000001     48.353150000000007     48.332950000000004
H      48.797100000000000     48.946350000000002     48.686150000000005
H      48.375500000000002     47.053649999999998     48.213050000000003
