18

C      47.557114999999989     48.919149999999995     48.060199999999995
C      48.097844999999992     47.484949999999998     47.577800000000003
C      46.156104999999997     49.232050000000001     47.740800000000000
C      47.087674999999997     46.788950000000000     46.948299999999996
C      48.205554999999997     49.400050000000000     49.086700000000000
C      49.397084999999990     47.040649999999999     47.859100000000005
C      45.492584999999991     48.532250000000005     46.705300000000001
C      45.918694999999992     47.220450000000000     46.324400000000004
C      49.537034999999996     49.006250000000009     49.440900000000006
C      50.054214999999992     47.832949999999997     48.894399999999997
H      45.755264999999994     50.406250000000000     47.930600000000005
H      47.077164999999994     45.593750000000000     46.437400000000004
H      47.472774999999992     49.850049999999996     49.690700000000000
H      50.007215000000002     46.399050000000003     47.137999999999998
H      44.848484999999997     49.102050000000006     46.193000000000005
H      45.537104999999997     46.661749999999998     45.530899999999995
H      50.116914999999992     49.310350000000000     50.469100000000005
H      51.151515000000003     47.759550000000004     49.323200000000007
