77

C      46.484299999999990     46.292884999999991     49.614749999999994
C      49.093899999999998     49.776735000000002     51.288449999999997
C      49.702199999999998     51.218734999999995     51.464349999999996
C      48.464999999999996     51.461635000000001     44.146750000000004
C      51.553499999999993     53.915334999999999     47.050450000000005
C      48.845899999999993     49.175735000000003     49.965949999999999
C      49.552100000000003     52.526735000000002     44.128850000000000
C      51.000799999999991     53.728034999999998     45.774550000000005
C      48.087799999999994     50.635234999999994     45.224950000000000
C      49.618000000000002     51.973434999999995     50.331949999999999
C      50.935799999999993     53.239035000000001     48.120350000000002
C      48.741499999999995     49.656435000000002     47.442750000000004
C      50.265099999999997     52.523434999999999     45.498550000000002
C      49.153799999999997     49.908834999999996     48.788250000000005
C      48.748600000000003     50.732434999999995     46.487150000000000
C      49.718600000000002     51.313634999999998     49.164750000000005
C      50.133299999999998     52.129734999999997     47.965450000000004
C      49.760500000000000     51.815334999999990     46.582850000000001
C      48.373899999999999     49.217235000000002     52.419250000000005
C      48.643700000000003     49.588534999999993     53.729550000000003
C      49.614899999999999     50.631235000000004     54.046250000000001
C      49.943199999999997     51.434735000000003     52.833349999999996
C      48.168900000000001     51.060234999999992     42.825749999999999
C      48.885600000000004     51.632835000000000     41.709250000000004
C      49.809099999999994     52.624234999999999     41.826750000000004
C      50.259499999999996     53.223735000000005     43.171050000000001
C      51.164999999999999     54.351134999999999     43.396450000000002
C      51.566499999999998     54.581535000000002     44.721450000000004
C      48.234900000000003     47.814234999999996     50.295349999999999
C      47.625200000000000     46.978535000000008     49.155750000000005
C      47.733899999999998     47.842635000000001     51.766049999999993
C      52.136299999999999     54.836835000000008     42.311650000000000
C      50.634799999999991     52.804034999999999     52.958350000000003
C      52.186599999999991     54.284835000000001     41.050150000000002
C      44.845700000000001     43.508805000000002     47.209550000000000
C      45.445199999999993     44.222425000000001     48.447350000000000
C      44.768200000000000     42.097625000000001     47.412849999999999
C      45.699899999999992     43.468094999999998     49.493450000000003
C      43.990299999999998     44.367345000000000     46.480750000000000
C      45.792799999999993     45.598084999999998     48.439950000000003
C      45.566099999999999     41.318465000000003     48.423349999999999
C      46.125499999999995     42.100675000000003     49.463050000000003
C      43.700899999999997     45.605235000000000     47.038550000000001
C      44.628300000000003     46.214394999999996     47.916750000000000
C      47.964700000000001     48.793135000000007     54.848750000000003
H      46.651199999999996     45.960484999999998     50.714349999999996
H      52.340600000000002     54.583334999999998     47.306450000000005
H      47.268499999999996     49.873435000000001     45.311150000000005
H      49.736899999999999     53.006434999999996     50.083950000000002
H      51.448100000000004     53.483035000000001     49.122250000000001
H      48.377099999999992     48.671334999999999     47.172750000000001
H      47.792999999999999     50.113335000000006     42.712250000000004
H      48.666699999999999     51.402535000000000     40.763449999999999
H      50.070100000000004     53.242834999999999     40.975050000000003
H      52.520400000000002     55.852834999999999     42.596350000000001
H      52.436199999999992     55.361334999999997     44.919750000000001
H      49.061999999999991     46.956135000000003     50.292250000000003
H      46.850500000000004     48.281035000000003     52.140550000000005
H      47.951100000000004     46.975335000000001     52.390349999999998
H      50.101300000000002     52.062735000000004     55.255050000000011
H      52.763900000000000     54.701134999999994     40.222850000000001
H      49.876199999999990     53.130935000000001     53.759750000000004
H      50.763699999999993     53.827735000000004     52.060450000000003
H      51.618499999999990     53.124134999999995     53.228450000000009
H      51.674199999999992     53.270735000000002     41.293450000000000
H      44.321800000000003     41.422494999999998     46.638650000000005
H      46.166300000000000     43.673285000000000     50.718149999999994
H      43.436900000000001     44.002755000000001     45.539550000000006
H      47.759799999999991     47.042735000000008     48.031250000000000
H      45.814699999999995     40.147165000000001     48.089850000000006
H      46.664200000000001     41.756225000000001     50.425449999999998
H      43.236100000000000     46.679434999999998     46.918050000000001
H      44.634499999999996     47.351835000000001     47.837250000000004
H      47.757799999999996     47.629334999999998     54.420749999999998
H      46.874999999999993     48.940235000000001     55.321249999999999
H      48.683699999999995     49.091135000000008     55.777149999999999
O      49.701699999999995     51.160235000000000     55.252650000000003
