18

C      47.583499999999987     48.243249999999996     48.761229999999998
C      48.673800000000000     48.226950000000002     47.839910000000003
C      47.582599999999999     47.187750000000001     49.830699999999993
C      49.580600000000004     47.142750000000007     47.857780000000005
C      46.491799999999998     49.180050000000001     48.953519999999997
C      48.559799999999996     49.036250000000003     46.650409999999994
C      48.258700000000005     46.034550000000003     49.760229999999993
C      49.457599999999999     46.223450000000007     48.886640000000000
C      46.572699999999998     50.099750000000000     47.904250000000005
C      47.452900000000000     49.864050000000006     46.752529999999993
H      46.758799999999994     47.264850000000003     50.318299999999994
H      50.339200000000005     46.943850000000005     47.092709999999997
H      45.602599999999995     49.210750000000004     49.786730000000006
H      49.198800000000006     48.690050000000014     45.681700000000006
H      48.152400000000000     45.074050000000000     50.299040000000005
H      50.397400000000005     45.651850000000003     48.972009999999997
H      45.685900000000004     50.925950000000000     47.932460000000006
H      47.167000000000002     50.098450000000007     45.722070000000002
