5

C      48.263399999999990     47.810849999999988     48.254500000000000
H      48.325399999999995     47.633749999999999     47.102199999999996
H      47.347699999999996     47.939249999999994     48.740099999999998
H      48.515799999999992     46.999350000000000     48.897800000000004
H      48.652300000000004     49.000650000000000     48.234899999999996
