18

C      49.304600000000001     48.668049999999994     47.229199999999992
C      48.796199999999999     48.812949999999994     48.648400000000002
C      48.985299999999995     49.682250000000003     46.359000000000002
C      47.363600000000005     49.185250000000003     48.957200000000000
C      50.186499999999995     47.608449999999998     46.958199999999998
C      49.597800000000007     48.123349999999995     49.650799999999997
C      47.606700000000004     49.791050000000006     46.606199999999994
C      46.785799999999995     49.426150000000000     47.697299999999998
C      50.204099999999997     46.498449999999998     47.818400000000004
C      49.924899999999994     46.784450000000000     49.171100000000003
H      48.912099999999995     49.804749999999991     45.266700000000000
H      46.944900000000004     48.405750000000005     49.657800000000002
H      50.291200000000003     47.405149999999999     45.889299999999999
H      49.390000000000001     48.484050000000003     50.733300000000000
H      47.187899999999999     50.555150000000005     45.758900000000004
H      45.708799999999997     49.475550000000005     47.523199999999996
H      50.164000000000001     45.444849999999995     47.425800000000002
H      50.273399999999995     46.031050000000000     49.892999999999994
