19

C      47.718599999999995     47.742199999999990     48.785259999999994
C      47.194600000000001     47.259099999999997     47.493859999999998
C      49.145299999999999     47.596199999999996     49.057759999999988
C      47.820399999999999     46.222899999999996     46.902159999999995
C      47.265000000000008     48.966600000000000     49.214860000000002
C      46.227499999999999     48.129099999999994     46.760959999999997
C      49.849000000000011     46.633099999999999     48.593459999999993
C      49.063000000000009     45.873999999999995     47.599660000000000
C      46.587200000000003     49.962999999999994     48.440759999999997
C      46.265500000000010     49.675500000000000     47.135759999999991
H      45.167099999999998     47.703199999999995     47.180359999999993
H      49.708700000000000     48.263199999999998     49.690259999999995
H      47.365500000000004     45.815699999999993     45.934510000000003
H      47.567200000000007     49.244699999999995     50.343760000000003
H      46.313800000000008     48.213399999999993     45.656239999999997
H      50.832900000000002     46.479599999999998     48.968859999999992
H      49.803699999999999     44.986300000000000     47.273060000000001
H      46.020800000000001     51.013700000000000     48.646659999999997
H      45.923200000000001     50.363200000000006     46.395690000000002
