20

C      48.637050000000002     48.331949999999992     47.379749999999994
C      47.372450000000008     48.352049999999991     48.155150000000006
C      48.973050000000008     47.098150000000004     46.916849999999997
C      46.856050000000003     46.715949999999992     48.401150000000001
C      49.380850000000002     49.668949999999981     46.919049999999999
C      46.710349999999998     49.297250000000005     48.831249999999997
C      48.713450000000002     45.648550000000000     47.169849999999997
C      47.713450000000002     45.382549999999995     48.100449999999995
C      48.902850000000008     50.705349999999981     47.843549999999993
C      47.569150000000000     50.507050000000007     48.676749999999998
H      46.558150000000005     46.490150000000000     49.446649999999998
H      47.883150000000008     50.764949999999999     49.693249999999999
H      49.955350000000003     47.350049999999996     46.540750000000003
H      47.553649999999998     44.383449999999996     48.560450000000003
H      50.416350000000001     49.659649999999999     46.306750000000001
H      45.583649999999999     49.302650000000000     49.267550000000000
H      49.527549999999998     44.915949999999995     46.990349999999999
H      45.803550000000008     46.713049999999996     47.942549999999997
H      49.268250000000002     51.616550000000004     48.384149999999991
H      47.008950000000006     51.467950000000002     48.653250000000000
