11

C      47.780249999999988     48.964349999999989     47.335499999999989
C      48.352449999999997     47.573949999999996     47.408899999999988
C      48.416950000000000     46.968149999999994     48.859700000000004
H      46.571950000000001     48.988650000000007     47.513599999999997
H      47.769549999999995     49.206050000000005     46.307800000000000
H      48.417949999999998     49.851349999999996     47.869199999999999
H      48.377150000000000     47.518649999999994     49.692200000000000
H      49.428049999999999     47.701049999999995     46.935899999999997
H      47.734449999999995     46.965450000000004     46.758800000000001
H      49.251049999999992     46.148650000000004     49.117500000000000
H      47.544449999999998     46.286749999999998     48.749499999999998
