18

C      47.147199999999998     47.786949999999990     48.248564999999992
C      48.518300000000004     48.197750000000006     48.577204999999999
C      46.074900000000007     48.603049999999996     47.643574999999998
C      48.613599999999998     49.690649999999998     48.780474999999996
C      47.125300000000003     46.399949999999997     47.991914999999999
C      49.661000000000008     47.477549999999994     48.767564999999991
C      46.416100000000007     49.923150000000000     48.000655000000002
C      47.402400000000007     50.480149999999988     48.864874999999998
C      48.365000000000002     45.627150000000000     48.143924999999996
C      49.717700000000001     46.111149999999995     48.474045000000004
H      45.343600000000002     48.302249999999994     46.745384999999999
H      49.413500000000006     50.083949999999994     49.236204999999998
H      46.253500000000010     45.779949999999999     47.909154999999998
H      45.901900000000005     50.646349999999998     47.354214999999996
H      47.335100000000004     51.517450000000004     49.254615000000001
H      48.384500000000010     44.482549999999996     48.242044999999997
H      50.656399999999998     45.488349999999997     48.664955000000006
H      50.577400000000004     48.188650000000003     48.992235000000008
