5

C      48.186999999999998     48.041649999999990     47.781199999999991
H      47.230599999999995     48.457749999999997     47.245599999999996
H      47.955700000000007     47.614749999999994     48.754400000000004
H      48.769400000000005     47.151249999999997     47.423899999999996
H      48.644399999999990     48.848750000000003     48.471099999999993
