18

C      48.770549999999993     47.263849999999991     47.796199999999999
C      48.633849999999995     48.592550000000003     48.504600000000011
C      48.003349999999998     45.958950000000002     48.127099999999999
C      48.103949999999998     48.361350000000002     49.865000000000009
C      49.101950000000002     47.303750000000008     46.439500000000010
C      48.696449999999999     49.874550000000013     47.800299999999993
C      47.223950000000002     46.116050000000001     49.341700000000003
C      47.355350000000001     47.342250000000007     50.067300000000003
C      48.783549999999991     48.526350000000008     45.781600000000012
C      48.668650000000000     49.763250000000014     46.471100000000007
H      48.212450000000004     45.079149999999998     47.626200000000011
H      48.401349999999994     49.142350000000008     50.776300000000006
H      49.323049999999995     46.235750000000010     45.930700000000002
H      48.630549999999999     50.920850000000002     48.365499999999997
H      46.965149999999994     47.497749999999996     51.173899999999989
H      49.367450000000005     48.765150000000006     44.826100000000011
H      48.424750000000003     50.744750000000010     46.057000000000002
H      46.632549999999995     45.211250000000007     49.722999999999999
