57

C      50.655419999999992     48.990000000000002     49.836099999999988
C      46.328419999999994     50.375900000000001     44.033900000000003
C      50.801319999999990     47.491100000000003     49.437100000000001
C      46.257419999999996     48.993900000000011     43.596800000000002
C      49.800719999999998     49.965699999999998     49.314599999999999
C      47.107019999999991     50.839800000000011     45.152400000000000
C      49.959620000000001     45.563100000000006     48.067300000000003
C      47.317819999999998     46.866600000000005     44.187200000000004
C      48.694319999999991     45.299700000000001     47.460400000000007
C      48.014419999999987     45.928400000000011     45.037199999999999
C      48.751819999999995     50.618500000000012     47.076000000000008
C      50.061119999999988     47.142300000000006     48.247700000000009
C      47.257019999999997     48.279100000000000     44.400900000000007
C      48.459519999999998     46.126200000000011     46.303100000000001
C      49.372019999999992     49.709800000000001     47.947000000000003
C      48.083419999999990     49.933599999999998     45.986500000000007
C      49.499919999999989     48.233000000000004     47.443400000000011
C      47.957119999999989     48.545700000000011     45.729900000000001
C      48.735619999999997     47.588400000000007     46.507900000000006
C      51.210881000000001     49.338400000000007     51.125799999999998
C      52.010900000000007     48.373500000000007     51.994900000000001
C      52.058589999999995     46.994000000000000     51.404100000000000
C      51.513120000000001     46.628200000000007     50.134200000000007
C      51.496249000000006     45.181800000000010     49.772900000000007
C      50.499319999999997     44.574300000000008     48.977200000000011
C      45.064019999999999     50.948900000000009     43.458400000000012
C      44.306419999999989     49.899400000000000     42.973900000000000
C      45.128419999999991     48.704700000000003     42.758000000000010
C      51.304689999999994     50.734099999999998     51.739900000000006
C      51.717303999999999     51.135800000000003     53.053400000000011
C      52.167909999999992     50.105800000000002     53.698400000000007
C      52.377080000000007     48.780400000000000     53.197400000000002
C      50.642319999999998     51.766600000000011     50.952900000000000
C      49.790119999999987     51.327700000000007     49.892700000000005
C      48.988720000000001     52.272600000000011     49.184400000000011
C      48.491919999999993     51.964500000000001     47.864100000000008
C      49.123319999999993     44.595900000000000     50.124099999999999
C      50.621420000000001     43.332800000000006     48.684300000000007
H      53.003480000000010     50.353200000000001     54.366399999999999
H      46.864719999999991     51.852699999999999     45.638500000000008
H      47.129819999999995     46.753500000000003     43.070200000000000
H      48.643219999999999     44.229100000000003     47.424000000000007
H      47.891419999999997     44.820500000000010     44.908900000000003
H      52.466120000000004     46.209600000000009     52.098500000000001
H      52.124790000000004     44.569400000000002     50.262300000000010
H      44.636319999999998     51.760300000000001     43.813800000000001
H      45.036519999999996     47.817999999999998     42.057200000000009
H      51.743980000000008     52.209900000000005     53.565000000000012
H      52.511279999999999     47.721100000000007     53.667700000000011
H      50.308019999999999     52.643400000000000     51.549000000000007
H      48.866119999999995     53.175899999999999     49.642300000000006
H      50.694319999999991     43.157500000000006     47.609000000000009
H      49.684619999999995     42.824100000000001     49.086800000000011
H      42.996519999999990     49.444400000000002     41.633600000000001
H      48.658119999999997     52.760900000000007     47.066800000000001
O      48.214919999999992     44.766300000000001     50.710500000000010
O      43.053919999999991     50.011700000000005     42.479900000000001
