18

C      48.184049999999985     48.308049999999994     48.624649999999995
C      47.618749999999999     47.784749999999995     47.418549999999996
C      49.570050000000002     48.015849999999993     49.048349999999999
C      48.362249999999996     46.764949999999992     46.764349999999993
C      47.626849999999997     49.559649999999998     49.206850000000003
C      46.269649999999992     48.088249999999995     47.238050000000001
C      50.152049999999996     46.955549999999995     48.356250000000003
C      49.480849999999997     46.207850000000001     47.324849999999998
C      46.429949999999998     50.151649999999997     48.799750000000003
C      45.768250000000002     49.199249999999999     47.905749999999998
H      50.110750000000003     48.456949999999999     49.888649999999998
H      47.763150000000003     46.050850000000004     45.915350000000004
H      48.062850000000005     50.021549999999998     50.084649999999996
H      45.636549999999993     47.535750000000000     46.547650000000004
H      51.262250000000002     46.913050000000005     48.481449999999995
H      49.681350000000002     45.250350000000005     46.962149999999994
H      45.857049999999994     50.749649999999995     49.595050000000001
H      44.737749999999998     49.357449999999993     47.695049999999995
