47

C      48.059499999999993     47.568249999999985     47.898124999999993
C      48.294200000000004     46.807049999999997     46.674104999999997
C      51.331000000000003     50.770750000000000     45.748255000000000
C      48.955700000000007     48.646749999999997     48.302654999999994
C      48.664299999999997     47.989649999999997     45.651265000000002
C      50.732799999999997     50.469749999999991     47.934494999999991
C      50.428500000000000     49.768150000000006     45.347805000000001
C      49.877600000000001     49.338349999999991     47.513565000000000
C      49.816900000000004     48.870350000000002     46.124755000000000
C      46.921399999999998     47.327449999999992     48.844475000000010
C      45.785299999999999     46.939549999999997     48.132314999999998
C      45.287399999999998     47.367949999999993     46.783364999999996
C      47.837499999999999     45.467349999999996     46.582025000000002
C      46.627700000000004     47.768149999999991     50.164495000000002
C      45.550100000000000     47.336349999999996     51.001795000000001
C      44.628399999999999     46.431049999999992     50.377694999999996
C      44.738799999999998     46.415949999999995     49.026665000000001
C      47.560499999999998     48.700149999999994     50.535294999999998
C      48.568700000000000     49.095050000000001     49.606545000000004
C      49.566000000000003     50.163049999999991     50.210794999999997
C      50.324500000000000     50.800750000000008     49.352815000000000
C      47.472999999999999     44.764449999999997     47.805835000000002
C      50.772999999999996     52.202749999999995     49.867255000000000
C      51.666899999999998     51.048049999999996     47.105505000000001
C      48.020899999999997     48.367050000000006     44.489595000000001
C      44.447400000000002     46.460749999999997     46.174145000000003
C      47.109499999999997     43.430249999999994     47.551944999999996
H      51.841400000000007     52.099249999999984     50.112594999999992
H      51.832200000000000     51.027449999999995     44.889834999999998
H      45.637200000000000     47.384349999999991     52.084395000000001
H      44.288699999999999     45.971849999999996     48.137745000000002
H      47.394300000000001     49.157449999999990     51.493294999999996
H      49.574799999999996     50.459249999999983     51.182594999999999
H      50.258499999999998     52.384449999999987     50.918495000000000
H      44.116599999999998     45.633949999999992     51.944795000000006
H      50.530999999999999     53.099450000000004     49.221025000000004
H      50.097300000000004     49.649349999999991     44.277425000000001
H      47.275500000000001     43.188449999999996     46.459274999999998
H      48.200000000000003     49.429649999999988     43.915604999999999
H      46.948499999999996     47.727450000000005     44.494234999999996
H      45.884100000000004     48.105449999999990     46.309764999999999
H      47.918599999999998     44.876549999999995     45.565305000000002
H      47.402000000000001     45.027049999999996     48.795665000000000
H      46.777299999999997     42.900549999999996     48.689315000000001
H      52.419600000000003     51.675449999999984     47.593375000000002
O      43.580399999999997     45.711149999999996     45.950805000000003
O      43.583700000000000     45.627549999999992     51.023595000000000
