20

C      46.126599999999996     50.062249999999999     48.974199999999996
C      47.840899999999998     48.409750000000003     47.763300000000001
C      48.284500000000001     47.047750000000008     48.057599999999994
C      46.513100000000001     48.774550000000005     48.495599999999996
C      47.417399999999994     46.101450000000007     48.764899999999997
C      48.408800000000006     49.294550000000008     46.911699999999996
C      49.503400000000006     46.712950000000006     47.408699999999996
C      45.804300000000005     47.751850000000005     49.172899999999998
C      46.126599999999996     46.362950000000005     49.046599999999998
C      49.819200000000002     48.988050000000008     46.862499999999997
C      50.273800000000001     47.629550000000002     46.672399999999996
H      46.179700000000004     50.949749999999995     48.339299999999994
H      45.198700000000002     50.044850000000004     49.414100000000005
H      47.758299999999998     45.050250000000005     49.095199999999991
H      47.855399999999996     50.296650000000007     46.772499999999994
H      49.770000000000003     45.595150000000004     47.509100000000004
H      44.826900000000002     48.161150000000006     49.796800000000005
H      45.409200000000006     45.598850000000006     49.218000000000004
H      50.072300000000006     49.816850000000002     46.379400000000004
H      51.173099999999998     47.530550000000005     46.203199999999995
