6

C      47.621649999999988     47.746199999999988     47.417649999999995
C      48.163950000000000     48.336199999999998     48.485049999999987
H      46.950249999999997     46.962100000000000     47.708049999999986
H      47.418450000000007     48.306000000000004     46.386650000000003
H      47.873050000000006     48.082100000000004     49.613349999999997
H      49.049750000000003     49.037900000000000     48.642349999999993
