6

C      48.635479999999987     47.880749999999992     48.238835999999992
C      47.467559999999999     48.277749999999990     47.589909999999989
H      49.197880000000005     48.577750000000002     48.736589999999993
H      46.802119999999995     49.099049999999998     48.136820000000000
H      48.723259999999996     46.900950000000002     47.904128999999998
H      46.842089999999999     47.390949999999997     47.263410000000007
