5

C      48.220449999999992     48.187099999999987     47.927499999999988
H      48.866749999999996     47.978700000000003     48.840500000000006
H      47.922350000000002     48.951999999999998     47.159499999999994
H      47.133250000000004     48.235700000000008     48.238000000000000
H      48.067250000000001     47.048000000000002     47.297299999999993
