18

C      48.095099999999995     47.674299999999995     47.474449999999990
C      48.014200000000002     48.555099999999996     48.680849999999992
C      49.355800000000002     47.435000000000002     46.791449999999998
C      49.313500000000005     48.965800000000002     49.076149999999998
C      46.729600000000005     47.158900000000003     47.349549999999994
C      47.046800000000005     49.165199999999999     49.320350000000005
C      50.595300000000009     47.610500000000002     47.501549999999995
C      50.527200000000008     48.695299999999989     48.438749999999999
C      45.566900000000004     47.882099999999994     47.844849999999994
C      45.762200000000007     48.795999999999992     48.910150000000002
H      49.600300000000004     46.815100000000001     45.842749999999995
H      49.377700000000004     49.811899999999994     49.671650000000000
H      46.787100000000009     46.075699999999998     47.189750000000004
H      47.052000000000007     49.924300000000002     50.157250000000005
H      51.533400000000000     46.963499999999996     47.294250000000005
H      51.460500000000010     48.929999999999993     48.830950000000001
H      44.466600000000000     47.298499999999990     48.108550000000008
H      44.824100000000001     49.079700000000003     49.532150000000001
