18

C      47.808219999999992     47.295449999999995     48.071390000000001
C      48.197560000000003     48.775250000000000     47.991870000000006
C      46.485977999999996     46.949550000000002     48.574550000000002
C      47.162929999999996     49.704749999999990     48.093289999999996
C      48.842089999999992     46.334750000000000     47.711190000000002
C      49.512739999999987     49.233350000000002     47.490430000000003
C      45.536989999999996     48.035550000000001     48.799689999999998
C      45.950430999999995     49.387150000000005     48.823740000000001
C      50.033899999999996     46.826149999999998     47.058050000000001
C      50.444549999999985     48.135649999999998     47.174910000000004
H      46.102449999999997     45.924750000000003     48.601920000000007
H      47.468849999999996     50.690350000000002     47.559990000000006
H      48.983449999999998     45.309649999999998     48.172730000000001
H      49.702029999999986     50.260350000000003     48.087230000000005
H      44.491689999999998     47.674849999999999     48.735910000000004
H      45.487689999999979     50.234750000000005     49.353899999999996
H      50.851130000000005     46.129550000000002     46.646100000000004
H      51.508310000000002     48.533050000000003     46.844450000000002
