18

C      47.122749999999989     48.510299999999987     48.033099999999990
C      48.264150000000001     47.700300000000006     48.695999999999991
C      46.778849999999991     49.798300000000005     48.480699999999999
C      49.034649999999999     48.458300000000001     49.742300000000007
C      46.593849999999989     47.964599999999997     46.741500000000002
C      48.311949999999996     46.350599999999993     48.203800000000008
C      47.691949999999991     50.437800000000003     49.358200000000004
C      48.773049999999998     49.812499999999993     49.991700000000002
C      46.807649999999995     46.651800000000001     46.334200000000003
C      47.458249999999992     45.836000000000006     47.131599999999999
H      46.151849999999996     50.465799999999994     47.767899999999997
H      49.942650000000000     48.327599999999997     50.359299999999998
H      46.273649999999989     48.418299999999995     45.857999999999997
H      48.538349999999994     45.291999999999994     48.688699999999997
H      47.596849999999989     51.215600000000002     50.155700000000003
H      49.451449999999994     50.778500000000001     50.410699999999999
H      46.057350000000000     46.124400000000001     45.589300000000001
H      47.229050000000001     44.784399999999998     47.437700000000000
