21

C      50.317199999999993     48.989549999999994     47.105550000000001
C      48.207200000000000     47.691150000000000     48.138750000000002
C      47.007199999999997     47.112249999999996     47.822050000000004
C      48.631699999999995     48.054049999999997     49.483550000000008
C      45.844399999999993     47.400150000000004     48.797849999999997
C      49.097600000000000     48.067249999999994     46.998050000000006
C      46.767700000000005     46.514850000000003     46.532650000000004
C      47.657100000000000     48.121549999999992     50.416350000000008
C      46.227499999999992     47.851649999999999     50.027950000000004
C      48.828699999999998     47.616349999999990     45.660849999999996
C      47.757899999999992     46.675949999999993     45.559049999999999
H      50.710499999999996     49.288549999999994     46.115350000000007
H      49.979699999999994     49.744149999999998     47.791750000000008
H      51.099699999999999     48.477349999999994     47.826250000000002
H      49.673400000000001     47.873249999999992     49.923050000000003
H      45.417199999999994     47.863849999999992     50.790250000000000
H      45.834000000000003     46.255850000000002     46.103650000000002
H      48.600700000000003     48.029949999999992     51.401650000000004
H      44.900300000000001     46.922449999999991     48.349149999999995
H      49.659899999999993     47.521149999999999     44.796350000000004
H      47.459000000000003     46.346349999999994     44.598349999999996
