18

C      48.915649999999985     47.778199999999998     47.980349999999987
C      47.458049999999993     47.707000000000001     47.806950000000001
C      49.316650000000003     47.085299999999997     49.210450000000009
C      46.635249999999992     47.063700000000004     48.780850000000001
C      49.384549999999997     48.609800000000000     46.798949999999991
C      46.563049999999997     48.534299999999995     47.024649999999994
C      48.472850000000001     46.489500000000000     50.008050000000011
C      47.042349999999992     46.759400000000007     50.092750000000009
C      48.520350000000001     49.151000000000003     45.843249999999998
C      47.108950000000000     49.204199999999993     46.018850000000000
H      50.306249999999999     46.807099999999998     49.379549999999995
H      45.587949999999999     47.205300000000001     49.059249999999992
H      50.412050000000001     48.319200000000002     46.523649999999989
H      45.711049999999993     48.965499999999999     47.191350000000000
H      49.003349999999990     46.046399999999998     50.804050000000004
H      46.629950000000001     46.555299999999995     51.089350000000010
H      49.160649999999997     49.556800000000003     44.910649999999990
H      46.379749999999994     49.953600000000002     45.571549999999988
