18

C      47.901749999999993     48.692669999999993     48.435049999999997
C      48.594550000000005     47.748469999999998     47.561049999999994
C      46.629350000000002     48.009770000000003     48.872450000000001
C      48.136050000000004     46.416309999999996     47.176249999999996
C      48.022449999999999     50.129369999999994     48.612849999999995
C      49.689349999999997     48.386070000000004     46.910550000000001
C      46.049349999999997     46.858959999999996     48.279849999999996
C      46.814050000000002     45.982839999999996     47.431650000000005
C      49.338749999999997     50.451970000000003     48.190550000000002
C      50.016650000000006     49.774869999999993     47.140649999999994
H      46.367849999999997     48.645069999999990     49.729550000000003
H      48.831250000000004     45.804509999999993     46.395750000000007
H      46.966850000000001     51.091369999999998     48.743849999999995
H      50.345350000000003     47.879970000000000     46.270449999999997
H      45.126950000000001     46.446379999999991     48.706550000000007
H      46.574950000000001     44.908630000000002     47.080250000000007
H      49.741650000000000     51.047669999999997     48.923649999999995
H      50.873049999999999     50.243470000000002     46.655249999999995
