83

C      44.229649999999992     45.169499999999992     49.457799999999992
C      45.483950000000000     45.453400000000002     48.616999999999997
C      46.833149999999996     42.903100000000009     52.627299999999998
C      47.867749999999994     42.530000000000001     51.509800000000006
C      44.009750000000004     44.353499999999997     50.561100000000003
C      46.629649999999991     44.739500000000007     49.073599999999999
C      45.440350000000002     43.257300000000001     52.241300000000003
C      47.395850000000003     42.862700000000004     50.240800000000000
C      45.269050000000000     43.857700000000008     51.035800000000002
C      46.559049999999992     43.963700000000003     50.237800000000000
C      43.114849999999997     46.105100000000007     49.282699999999998
C      43.097749999999998     46.937600000000003     48.114500000000000
C      44.307349999999992     47.147900000000007     47.348999999999997
C      45.535649999999997     46.626199999999997     47.797300000000000
C      47.017649999999996     42.648499999999999     53.964900000000000
C      47.906349999999996     41.680900000000008     54.452700000000000
C      48.797649999999997     41.270800000000008     53.441200000000002
C      48.825049999999997     41.706600000000009     52.070399999999999
C      48.078250000000004     45.024699999999996     48.616399999999999
C      46.802849999999999     49.922200000000004     44.398499999999999
C      46.539849999999994     50.319100000000006     45.764400000000002
C      45.760950000000001     56.805199999999999     42.439299999999996
C      45.663450000000005     57.365600000000001     43.733699999999999
C      46.712150000000001     50.946100000000001     43.392299999999999
C      46.150550000000003     51.729900000000001     46.059800000000003
C      46.553649999999998     55.706100000000006     42.124200000000002
C      45.766950000000001     56.442000000000007     44.761599999999994
C      46.870649999999991     53.325400000000002     42.607099999999996
C      45.745049999999999     53.888400000000004     45.158799999999999
C      46.605650000000004     52.358000000000004     43.591999999999999
C      46.260749999999994     52.523099999999999     44.991399999999999
C      46.730950000000000     54.638900000000007     43.065899999999999
C      46.004449999999999     55.018900000000002     44.432800000000000
C      47.161049999999996     48.672100000000000     44.079299999999996
C      47.052450000000000     47.611100000000008     45.018099999999997
C      46.669049999999991     47.928300000000007     46.259799999999998
C      46.611249999999991     49.231899999999996     46.747899999999994
C      47.433749999999996     50.088700000000003     42.346899999999998
C      47.722149999999992     48.775800000000004     42.668199999999999
C      48.277849999999994     47.655299999999997     41.738000000000000
C      51.964350000000003     40.599100000000007     52.194399999999995
C      51.212049999999998     41.248400000000004     53.187300000000000
C      52.657949999999992     41.203200000000010     51.142099999999999
C      51.526549999999993     42.632199999999997     53.188300000000005
C      51.525749999999995     39.197200000000009     51.890300000000003
C      50.041450000000005     40.514899999999997     53.890800000000006
C      52.941650000000003     42.613900000000001     51.039499999999997
C      52.387750000000004     43.311400000000006     52.239799999999995
C      50.573950000000004     38.509700000000009     52.703099999999999
C      49.849049999999998     39.132900000000006     53.757200000000005
H      43.016649999999991     43.939400000000006     51.127299999999998
H      44.786349999999992     43.676000000000002     53.059400000000004
H      47.809350000000002     42.405699999999996     49.517000000000003
H      42.338050000000003     45.739599999999996     49.851099999999995
H      42.439149999999991     47.927000000000007     48.245500000000000
H      44.136850000000003     48.248800000000003     46.762599999999999
H      46.077649999999998     42.837900000000005     54.595099999999995
H      47.876049999999999     41.235900000000001     55.376500000000000
H      49.486550000000001     41.406999999999996     51.231800000000000
H      48.060150000000000     45.673400000000001     47.587200000000003
H      45.719149999999992     57.593400000000003     41.630199999999995
H      45.728649999999995     58.494100000000003     44.027499999999996
H      46.234149999999993     51.958900000000000     47.190599999999996
H      47.052450000000000     55.513900000000007     41.244499999999995
H      45.462749999999993     56.670400000000001     45.703899999999997
H      46.950650000000003     52.915199999999999     41.594600000000000
H      45.115349999999999     53.905000000000001     46.029000000000003
H      47.497350000000004     46.362400000000008     44.666199999999996
H      46.193350000000002     49.449100000000001     47.628499999999995
H      47.379550000000002     50.451400000000007     41.370199999999997
H      47.642749999999999     46.691200000000009     42.067299999999996
H      48.100749999999998     47.803899999999999     40.623500000000000
H      49.166149999999995     47.144599999999997     42.217900000000000
H      53.188049999999997     40.523899999999998     50.537100000000002
H      50.755149999999993     43.168199999999999     53.726300000000002
H      52.354649999999999     38.865600000000001     51.110400000000006
H      50.208849999999991     40.735399999999998     55.011299999999999
H      53.661949999999997     42.984099999999998     50.455999999999996
H      52.528950000000002     44.499600000000001     52.108899999999998
H      50.437649999999998     37.505899999999997     52.496400000000001
H      48.908949999999997     38.615099999999998     54.226900000000001
O      48.892050000000005     44.147100000000009     48.759200000000000
O      46.695649999999993     46.994500000000002     47.290599999999998
