18

C      48.317698999999990     48.380350000000000     47.565199999999990
C      47.573540000000008     47.306650000000005     48.359299999999998
C      49.528289999999991     48.245950000000008     47.025399999999998
C      48.230360999999995     46.211349999999996     48.903200000000005
C      47.758739999999996     49.579750000000004     47.191200000000002
C      46.238040000000012     47.612650000000002     48.454299999999996
C      50.238310000000006     47.135149999999996     47.733100000000000
C      49.568189999999994     46.216850000000008     48.584899999999998
C      46.358540000000005     49.758250000000004     47.076999999999998
C      45.607539999999993     48.721350000000001     47.835599999999999
H      50.257589999999986     48.792250000000010     46.546300000000002
H      47.679039999999993     45.500450000000001     49.512900000000002
H      48.222232999999996     50.674549999999996     46.730800000000002
H      45.610639999999989     46.869250000000008     49.060800000000000
H      51.394060000000003     47.129649999999998     47.756000000000000
H      50.063039999999994     45.325450000000004     49.018900000000009
H      45.790340000000008     50.552549999999997     46.487099999999998
H      44.605939999999997     48.685550000000006     47.995799999999996
