18

C      47.935599999999994     47.494149999999983     47.251249999999992
C      48.227600000000002     48.340449999999990     48.522450000000006
C      47.911500000000011     48.214849999999998     46.004449999999999
C      48.216200000000008     49.717949999999988     48.445849999999993
C      47.891400000000012     46.079849999999993     47.406849999999991
C      48.106200000000008     47.788349999999994     49.901650000000004
C      47.840200000000003     49.595050000000001     46.202249999999999
C      48.263500000000001     50.512450000000001     47.229749999999996
C      48.009900000000009     45.570549999999997     48.687750000000001
C      47.952300000000001     46.441649999999996     49.821849999999998
H      47.475400000000000     47.803550000000001     45.144750000000002
H      48.144700000000007     49.994049999999987     49.536249999999995
H      47.809900000000006     45.459949999999992     46.379950000000001
H      47.568800000000003     48.358649999999997     50.686549999999997
H      48.048000000000009     49.907449999999997     45.162749999999996
H      48.524600000000000     51.557350000000000     47.316649999999996
H      47.866500000000009     44.442650000000000     48.875149999999998
H      48.149999999999999     46.031749999999988     50.855249999999998
