19

C      48.822949999999992     48.034249999999986     48.528549999999989
C      47.334650000000011     47.548149999999993     48.368549999999999
C      49.463950000000011     47.283950000000004     49.439949999999996
C      46.379450000000006     46.939949999999996     49.257350000000002
C      49.304950000000005     48.818849999999998     47.389250000000004
C      46.526150000000001     48.048150000000007     47.231150000000000
C      48.614649999999997     46.499049999999997     50.272350000000003
C      47.219250000000002     46.218949999999992     50.119349999999997
C      48.359150000000000     49.536850000000001     46.517949999999999
C      47.093550000000008     48.955849999999998     46.322149999999993
H      45.443449999999999     49.673850000000002     45.246449999999996
H      50.575850000000003     47.452849999999998     49.653250000000000
H      45.424149999999997     46.757149999999996     49.123850000000004
H      50.255549999999999     49.241950000000003     47.550749999999994
H      45.484750000000005     47.714849999999998     47.027649999999994
H      49.188450000000003     45.608049999999992     50.839050000000000
H      46.736950000000007     45.484849999999994     50.883049999999997
H      48.926750000000013     50.515150000000006     46.122950000000003
O      46.331850000000003     49.194050000000004     45.116950000000003
