41

C      48.766249999999999     50.342849999999991     47.006599999999992
C      49.439349999999997     49.157449999999997     46.971899999999998
C      44.956650000000003     43.514150000000001     49.718100000000000
C      47.551549999999999     50.612049999999996     47.794800000000002
C      43.924849999999999     44.447749999999999     49.440199999999997
C      48.735250000000001     47.841049999999996     47.432099999999998
C      44.119850000000007     46.734650000000002     48.457000000000001
C      47.038249999999998     45.866650000000000     48.612800000000000
C      44.665650000000007     45.477449999999997     48.799500000000002
C      46.036250000000003     44.960949999999997     48.905600000000000
C      46.816850000000009     49.437049999999999     47.871499999999997
C      45.132150000000003     47.647849999999998     48.365000000000002
C      47.504950000000001     48.257649999999998     47.983800000000009
C      46.538150000000009     47.201250000000002     48.198599999999992
C      49.340750000000007     46.686549999999997     48.007299999999994
C      48.577450000000006     45.651249999999997     48.626599999999996
C      50.614950000000000     49.056950000000001     46.078400000000002
C      51.629350000000009     48.792749999999998     47.002400000000002
C      49.276350000000001     44.509050000000002     49.155000000000008
C      48.902949999999997     43.512249999999995     50.241700000000002
C      49.017150000000008     51.516249999999999     46.042299999999997
C      50.173450000000010     52.352350000000001     46.454299999999996
H      44.615650000000009     42.582250000000002     50.196599999999997
H      47.296550000000003     51.561949999999996     48.187700000000000
H      43.078350000000007     44.610749999999996     49.882500000000000
H      53.286250000000003     49.694749999999999     46.384200000000000
H      50.727049999999998     49.621949999999998     45.123500000000000
H      49.809649999999998     43.002350000000000     50.705700000000000
H      51.025150000000004     48.802149999999997     47.928800000000003
H      50.199050000000007     46.376849999999997     47.343600000000002
H      48.175249999999998     43.818249999999999     51.021599999999999
H      51.241450000000007     52.621549999999999     46.031900000000000
H      49.779750000000000     53.417749999999998     46.640900000000002
H      50.513950000000001     52.068749999999994     47.447899999999997
H      42.713749999999997     47.845849999999999     47.975900000000003
H      50.356950000000005     44.720649999999999     48.693500000000000
N      46.140850000000007     43.812149999999995     49.524499999999996
O      53.024650000000001     49.015549999999998     46.941000000000003
O      48.482650000000000     51.331949999999992     44.978400000000001
O      42.797450000000005     46.860050000000001     48.230400000000010
S      44.986950000000000     49.340449999999997     48.166400000000003
