18

C      48.185949999999998     47.299649999999993     48.650749999999988
C      48.362049999999996     48.263049999999993     47.579650000000001
C      48.552850000000007     47.703050000000005     49.944950000000006
C      48.589650000000006     49.539850000000001     48.053049999999999
C      47.805449999999993     45.939149999999998     48.228149999999999
C      48.339050000000000     48.013649999999998     46.141149999999996
C      48.845550000000003     49.053350000000002     50.309349999999995
C      48.960049999999995     50.043450000000000     49.373350000000002
C      47.263850000000005     45.893349999999998     46.911550000000005
C      47.617549999999994     46.937249999999999     45.851550000000003
H      48.464150000000004     46.842250000000000     50.602550000000008
H      48.429050000000004     49.975250000000003     46.837050000000005
H      47.217650000000006     45.283450000000002     49.003249999999994
H      48.715649999999997     48.581350000000000     45.288049999999998
H      49.346249999999998     49.395250000000004     51.266350000000003
H      49.280349999999999     51.075850000000003     49.551249999999996
H      46.653750000000002     44.924149999999997     46.634150000000005
H      47.347549999999998     46.913249999999998     44.733649999999997
