18

C      47.247599999999991     48.597599999999993     47.809149999999988
C      48.445600000000006     47.504600000000003     47.974550000000008
C      47.910400000000003     49.820599999999999     48.072749999999999
C      49.858399999999996     47.762999999999998     48.200450000000004
C      45.921900000000001     48.356300000000005     47.415450000000007
C      47.870100000000001     46.353900000000003     47.825749999999999
C      49.121000000000002     50.006900000000002     48.627549999999999
C      50.237599999999993     49.078499999999998     48.526349999999994
C      45.417899999999996     46.966400000000000     47.371049999999997
C      46.366099999999996     45.961800000000004     47.664450000000002
H      47.220199999999998     50.810299999999998     48.184150000000002
H      50.776199999999996     47.578699999999998     47.599450000000004
H      45.347900000000003     49.147000000000006     47.194350000000000
H      48.196500000000007     45.294200000000004     47.925449999999998
H      49.475000000000001     50.968800000000002     48.982950000000002
H      51.514699999999998     49.163300000000000     48.267350000000008
H      44.485300000000002     46.859000000000002     47.017049999999998
H      45.928500000000000     45.031199999999998     47.843950000000007
