18

C      47.608774999999987     47.656599999999997     47.448014999999998
C      47.772254999999994     48.727599999999995     48.484714999999994
C      48.414384999999996     46.412300000000002     47.799115000000000
C      48.914455000000004     48.771199999999993     49.359414999999998
C      46.784154999999998     47.965599999999995     46.362015000000000
C      46.908214999999998     49.863500000000002     48.599415000000008
C      49.288844999999995     46.396400000000000     48.876114999999999
C      49.639714999999995     47.599899999999991     49.598915000000005
C      46.204174999999999     49.299299999999988     46.229515000000006
C      46.069504999999999     49.876400000000004     47.405214999999998
H      48.506244999999993     45.597700000000003     47.217415000000003
H      49.384364999999988     49.625599999999991     50.076515000000001
H      46.787254999999995     47.129999999999995     45.507985000000005
H      47.172684999999994     50.581099999999992     49.419915000000003
H      49.557855000000004     45.286900000000003     49.114514999999997
H      50.468615000000000     47.451899999999995     50.492014999999995
H      45.628594999999997     49.682599999999994     45.632914999999997
H      45.531385000000000     50.713099999999997     47.082414999999997
