18

C      48.009649999999993     48.731199999999987     48.202449999999992
C      47.924450000000000     47.223700000000001     48.256050000000002
C      49.211149999999996     49.483200000000004     47.994450000000001
C      49.132550000000002     46.361300000000007     48.091450000000009
C      46.892050000000005     49.545200000000001     48.382950000000008
C      46.630450000000003     46.523800000000001     48.354550000000003
C      50.239950000000000     48.608300000000007     47.549350000000004
C      50.107350000000004     47.129100000000001     47.461349999999996
C      45.628650000000000     48.896200000000000     48.587249999999997
C      45.662550000000003     47.482300000000002     48.557150000000007
H      49.703650000000003     50.686799999999998     47.987650000000002
H      49.071450000000006     45.295300000000005     48.403350000000003
H      47.065950000000001     50.704699999999995     48.138750000000002
H      46.587049999999998     45.403200000000005     48.325950000000006
H      51.344050000000003     49.050400000000003     47.412750000000003
H      51.236150000000002     46.911099999999998     47.752750000000006
H      44.934649999999998     49.532199999999996     48.027050000000003
H      44.655949999999997     47.156900000000000     48.166550000000001
