18

C      48.771299999999997     48.423499999999990     48.367500000000000
C      47.648099999999999     47.607599999999991     47.715300000000006
C      50.045200000000008     48.406999999999996     47.609800000000007
C      47.480500000000006     47.025700000000001     46.347000000000001
C      48.519500000000008     48.692299999999989     49.681800000000003
C      46.450699999999998     47.467699999999994     48.384900000000002
C      49.803200000000004     47.875999999999991     46.339300000000001
C      48.755200000000002     47.136899999999997     45.767600000000002
C      47.196800000000010     48.649799999999985     50.414900000000003
C      46.147500000000008     48.229900000000001     49.606899999999996
H      50.818500000000000     49.081699999999998     47.613300000000002
H      46.600700000000003     46.551000000000002     45.845800000000004
H      49.265100000000004     49.258699999999990     50.386600000000001
H      45.482200000000006     47.051699999999997     47.945300000000003
H      50.482900000000015     48.143599999999992     45.549900000000008
H      48.596800000000002     46.730599999999995     44.757300000000001
H      47.330900000000000     49.448999999999998     51.242699999999999
H      45.181500000000000     48.073700000000002     49.922700000000006
