18

C      48.457149999999984     48.501749999999987     47.960199999999986
C      47.376549999999995     47.609449999999995     48.405199999999994
C      48.208950000000002     49.347049999999996     46.826800000000006
C      46.164450000000002     47.733249999999998     47.714299999999994
C      49.769149999999996     48.313950000000006     48.590299999999999
C      47.726349999999996     46.651550000000000     49.403000000000006
C      47.005349999999993     49.377650000000003     46.171700000000001
C      45.948750000000004     48.585949999999997     46.653099999999995
C      50.094749999999991     47.313249999999996     49.596300000000014
C      49.009150000000005     46.492950000000008     50.007100000000008
H      48.896749999999997     50.349249999999998     46.667299999999997
H      45.335349999999991     47.047550000000001     48.236699999999999
H      50.697450000000003     48.700350000000000     48.161500000000004
H      46.903250000000000     46.118949999999998     49.736900000000006
H      47.003550000000004     50.079449999999994     45.258099999999999
H      44.814549999999997     48.393050000000002     46.088899999999995
H      51.185450000000003     46.847350000000006     49.630600000000001
H      49.339649999999992     45.650750000000002     50.741900000000001
