18

C      47.882249999999992     47.625999999999991     48.526215499999992
C      47.959249999999997     48.648000000000010     47.465495499999996
C      49.125150000000005     47.021100000000004     49.001675499999997
C      49.222149999999999     49.226900000000001     47.147585499999998
C      46.781750000000002     47.740900000000011     49.488175499999997
C      46.801049999999996     48.870300000000015     46.755105499999999
C      50.349849999999996     47.753399999999999     48.806375499999994
C      50.337249999999997     48.845700000000008     47.858015500000000
C      45.620549999999994     47.902400000000000     48.602395500000000
C      45.555549999999997     48.858600000000010     47.395215499999999
H      49.162549999999996     46.113399999999999     49.590305499999992
H      49.323149999999998     49.886600000000001     46.488535499999998
H      46.871849999999995     48.049199999999999     50.440445500000003
H      46.853949999999998     49.267200000000017     45.559554499999997
H      51.314149999999998     47.520099999999999     49.395625500000001
H      51.204949999999997     49.553800000000010     47.742455499999998
H      44.685850000000002     47.682000000000002     49.087605500000002
H      44.743549999999999     49.222400000000007     46.938585499999995
