18

C      48.582799999999999     47.496394999999993     47.362299999999991
C      48.090299999999999     48.247165000000003     48.552199999999999
C      49.791499999999999     48.063094999999997     46.884100000000004
C      48.914500000000004     49.425154999999997     49.108000000000004
C      48.031800000000004     46.270785000000004     46.985500000000002
C      46.685000000000002     48.170245000000001     48.531100000000009
C      50.347499999999997     49.347464999999993     47.186800000000005
C      50.028100000000009     49.963315000000001     48.497900000000001
C      46.619600000000005     45.970485000000004     47.080200000000005
C      45.989400000000003     47.068905000000001     47.683100000000010
H      50.349299999999999     47.473154999999998     45.984200000000001
H      48.621300000000005     49.930365000000002     50.015799999999999
H      48.702100000000002     45.471205000000005     46.502600000000001
H      46.381200000000007     48.709445000000002     49.459300000000013
H      51.016199999999998     49.779135000000004     46.421400000000006
H      50.574500000000000     50.876674999999999     48.761900000000011
H      46.197699999999998     45.123325000000001     46.422600000000003
H      44.983800000000002     46.995975000000001     47.736500000000007
