18

C      50.819909999999993     49.063249999999996     49.463189999999990
C      49.134449999999994     46.614950000000000     46.453339999999997
C      49.622419999999998     46.671849999999999     47.789169999999999
C      48.802904999999996     47.551349999999992     48.644199999999998
C      47.441760000000009     47.868050000000004     48.543340000000001
C      46.830260000000003     47.367749999999994     47.335039999999999
C      47.747760000000021     46.859749999999998     46.378299999999996
C      45.413960000000010     47.558850000000000     47.005669999999995
C      49.824549999999995     48.184849999999990     49.678640000000001
H      51.302739999999993     49.603349999999999     50.335670000000000
H      49.730439999999994     46.407750000000000     45.707540000000002
H      50.760459999999995     46.396650000000001     47.982190000000003
H      47.079860000000018     48.588450000000002     48.992710000000002
H      47.184460000000016     46.453249999999990     45.252420000000001
H      45.047760000000004     47.711350000000003     45.914439999999999
H      50.791639999999994     49.372449999999994     48.402909999999999
H      49.496189999999999     47.702049999999993     50.747579999999999
O      44.697260000000007     47.588050000000003     48.019739999999999
