18

C      47.846499999999992     47.285949999999985     47.717949999999988
C      48.143000000000008     48.715949999999992     48.104450000000000
C      48.920499999999997     46.702749999999995     47.012450000000001
C      49.170000000000002     49.256050000000002     47.392849999999996
C      46.582799999999999     46.856150000000000     48.159049999999993
C      47.210299999999997     49.353949999999998     49.123950000000008
C      49.948500000000003     47.365350000000007     46.270349999999993
C      50.109299999999998     48.736850000000004     46.409750000000003
C      45.850699999999996     47.535550000000001     49.042749999999998
C      45.979700000000001     48.871449999999996     49.616849999999999
H      48.879500000000000     45.606049999999996     46.687249999999992
H      49.220000000000006     50.364150000000009     47.532150000000001
H      46.384700000000002     45.880949999999999     47.994950000000003
H      47.457900000000002     50.393950000000004     49.422550000000001
H      50.586099999999995     46.690049999999999     45.590549999999993
H      50.881999999999998     49.267150000000001     45.882750000000001
H      45.118000000000002     47.050349999999995     49.624750000000006
H      45.392500000000005     49.209950000000006     50.409450000000007
