21

C      45.322249999999990     46.483549999999994     49.022649999999999
C      47.588149999999999     48.627150000000007     47.218750000000000
C      48.708150000000003     47.674750000000003     46.795050000000003
C      46.416950000000000     48.105450000000012     47.731250000000003
C      48.202350000000003     46.290950000000002     46.602350000000001
C      48.195750000000004     50.000149999999998     47.445449999999994
C      50.027450000000002     48.132650000000005     46.468850000000003
C      46.294849999999997     46.681649999999998     47.804149999999993
C      47.170349999999999     45.706750000000007     47.318849999999998
C      49.390349999999998     50.313050000000011     47.057149999999993
C      50.388350000000003     49.489049999999999     46.392150000000001
H      45.180349999999997     45.235850000000006     49.055849999999992
H      45.750950000000003     46.669650000000011     49.923450000000003
H      44.639550000000000     47.274650000000001     48.892349999999993
H      47.316450000000003     50.663050000000005     47.885049999999993
H      45.465750000000000     48.581150000000001     47.979649999999992
H      48.893349999999998     45.423549999999999     46.383749999999992
H      50.622749999999996     47.211250000000000     46.076549999999997
H      47.161050000000003     44.593550000000000     47.226150000000004
H      49.703749999999999     51.406450000000000     47.402050000000003
H      51.360450000000000     49.791249999999998     46.136949999999999
