18

C      48.191674999999989     48.494599999999991     47.630499999999991
C      47.221405000000004     47.761100000000006     48.458900000000000
C      47.783754999999999     48.552399999999999     46.250799999999998
C      46.144985000000005     46.898800000000001     47.843100000000000
C      49.202015000000003     49.339800000000004     48.388599999999997
C      47.424215000000004     48.011000000000003     49.906300000000002
C      46.871414999999999     47.818700000000000     45.570999999999998
C      46.298845000000000     46.797000000000004     46.409300000000002
C      49.579194999999999     49.236799999999995     49.591099999999997
C      48.623284999999996     48.631899999999995     50.490399999999994
H      48.301685000000006     49.526199999999996     45.774699999999996
H      45.451944999999995     46.181400000000004     48.355099999999993
H      49.963215000000005     49.818599999999996     47.807000000000002
H      46.674994999999996     48.120299999999993     50.668900000000008
H      46.723295000000007     47.959799999999994     44.466200000000001
H      45.358895000000004     46.309900000000006     45.896400000000000
H      50.641104999999996     49.588900000000002     49.913100000000000
H      48.769255000000001     48.425300000000000     51.533799999999999
