57

C      47.162879999999994     47.943249999999985     46.584749999999993
C      48.572950000000006     47.392849999999996     46.496149999999993
C      46.508970000000005     45.066149999999993     43.046650000000000
C      46.115600000000001     47.225349999999992     46.025649999999999
C      48.934049999999999     46.543749999999989     45.452749999999995
C      45.519919999999999     45.929049999999989     43.999549999999999
C      46.571230000000000     46.395149999999987     44.856150000000000
C      47.983270000000005     46.073049999999995     44.561749999999996
C      46.701250000000002     48.804249999999996     47.662549999999996
C      47.692090000000007     49.530949999999990     48.420349999999999
C      49.230850000000004     48.847049999999996     48.541749999999993
C      49.516650000000006     47.981049999999996     47.435749999999999
C      45.222120000000004     49.052650000000000     47.876149999999996
C      44.805430000000001     50.321649999999991     48.633649999999996
C      45.809290000000004     51.194049999999990     49.028049999999993
C      47.097690000000000     50.691949999999991     48.927249999999987
C      44.236980000000003     48.345849999999999     47.278949999999995
C      44.615170000000006     47.161149999999992     46.361149999999995
C      50.016650000000013     48.724449999999990     49.769149999999996
C      50.821950000000001     47.620749999999987     49.571249999999999
C      51.382050000000007     47.177749999999989     48.321549999999995
C      50.817750000000004     47.500949999999989     47.101649999999999
C      50.264750000000006     45.785249999999991     45.670649999999995
C      51.539750000000012     46.861549999999994     45.891749999999995
C      43.753500000000003     46.407449999999997     45.697849999999995
C      44.285220000000002     45.673349999999999     44.503049999999995
C      48.679450000000003     48.193849999999998     51.702849999999998
C      49.521950000000004     49.128749999999997     51.161649999999995
C      51.308050000000001     46.958849999999998     51.026949999999999
C      51.914550000000006     47.470649999999992     52.270549999999993
C      52.803650000000005     46.766949999999994     53.126849999999990
C      52.769450000000006     46.497949999999989     48.099449999999997
C      43.404870000000003     44.900250000000000     43.640749999999997
H      46.220990000000000     43.968750000000000     42.747949999999996
H      43.737070000000003     50.401949999999999     48.825049999999997
H      45.591570000000004     52.031250000000000     49.490049999999997
H      43.376910000000002     48.173149999999993     47.831849999999989
H      50.568950000000001     45.043049999999994     44.949649999999998
H      49.842950000000002     44.988049999999987     46.517049999999998
H      51.789950000000005     47.532149999999987     45.047349999999994
H      52.385650000000005     46.238450000000000     46.121249999999996
H      42.778280000000002     46.061849999999993     45.992949999999993
H      48.107669999999999     50.982549999999989     49.435149999999993
H      48.130900000000004     48.541049999999998     52.542249999999996
H      49.535650000000004     50.024349999999998     51.688649999999996
H      48.533550000000005     46.940549999999988     51.754549999999995
H      52.016050000000007     48.565749999999994     52.466949999999997
H      53.070750000000004     45.677549999999997     53.040849999999992
H      53.353549999999998     47.273149999999987     53.921650000000000
H      52.638850000000005     45.372549999999990     47.821749999999994
H      53.684950000000001     47.199749999999995     47.563849999999995
H      53.312550000000002     46.344849999999994     48.990649999999995
H      43.580430000000007     44.781149999999997     42.478149999999999
H      42.315049999999999     44.883150000000001     44.108849999999997
H      46.470380000000006     45.453049999999990     42.078350000000000
N      47.902190000000004     45.205849999999998     43.645349999999993
O      50.917650000000002     45.867449999999991     50.813049999999997
