18

C      48.176449999999996     48.103200000000001     47.379404999999991
C      47.510750000000002     47.976399999999998     48.759535000000014
C      49.017650000000003     49.217300000000009     47.378174999999999
C      47.781649999999999     48.778799999999990     49.903465000000011
C      47.755450000000003     47.352000000000004     46.214015000000003
C      47.138649999999998     46.620000000000005     49.077225000000013
C      49.231750000000005     50.229999999999990     48.375755000000012
C      48.901850000000010     49.727100000000007     49.605964999999998
C      46.854649999999999     46.270099999999999     46.636165000000005
C      46.690150000000003     45.870800000000003     48.048654999999997
H      47.166550000000001     46.068300000000008     50.063965000000010
H      46.049149999999997     44.972300000000004     48.090725000000006
H      49.458349999999996     49.358599999999996     46.244925000000009
H      47.643650000000001     48.497900000000001     50.964865000000003
H      47.842950000000002     47.329899999999995     45.035134999999997
H      49.950850000000003     51.027699999999996     48.270405000000011
H      49.591350000000006     50.036199999999994     50.596865000000008
H      46.402950000000004     45.736599999999996     45.953005000000005
