18

C      47.320149999999984     48.169499999999999     48.702099999999994
C      48.384450000000001     48.016700000000000     47.657969999999999
C      46.971850000000003     47.113999999999990     49.643950000000004
C      49.263649999999998     47.087000000000003     47.890470000000001
C      46.569649999999996     49.368700000000004     48.535530000000001
C      48.662350000000004     48.948799999999991     46.584299999999999
C      48.041950000000000     46.227400000000003     49.935540000000003
C      49.158050000000003     46.204300000000003     49.032539999999997
C      46.592649999999992     49.940699999999993     47.232749999999996
C      47.517049999999998     49.673000000000002     46.257930000000002
H      45.983149999999995     47.133200000000002     50.060580000000002
H      50.293050000000008     46.801299999999998     47.349530000000001
H      45.727149999999995     49.749899999999997     49.297960000000003
H      49.618250000000003     48.769300000000001     46.217329999999997
H      47.835050000000010     45.549300000000002     50.713600000000000
H      49.510549999999995     45.313900000000004     49.184260000000009
H      45.706949999999992     50.686099999999996     47.161639999999998
H      47.532049999999998     50.384599999999992     45.286400000000000
