53

C      48.335849999999994     47.550600000000003     47.763099999999994
C      47.733350000000002     48.766199999999998     47.208300000000001
C      52.073950000000004     50.344499999999996     47.541800000000002
C      49.708949999999994     47.585399999999993     48.001700000000007
C      48.511350000000000     49.961100000000002     46.824900000000000
C      51.903849999999998     49.028599999999997     48.018999999999998
C      50.980249999999991     50.899799999999999     46.778500000000001
C      50.455750000000002     48.852899999999991     47.745399999999997
C      49.912050000000001     49.943699999999993     46.998500000000000
C      47.695650000000001     46.375799999999998     48.331400000000002
C      46.219250000000002     46.346899999999991     48.137200000000000
C      45.560850000000002     47.537199999999999     47.643000000000001
C      46.292149999999999     48.608300000000000     46.875999999999998
C      48.456550000000000     45.389699999999991     49.167899999999996
C      47.679850000000002     44.210800000000006     49.631099999999996
C      46.303550000000001     44.206999999999994     49.087700000000005
C      45.487850000000002     45.237600000000000     48.500800000000005
C      49.848849999999992     45.810999999999993     49.451200000000000
C      50.608750000000008     46.722799999999992     48.787300000000002
C      44.241450000000000     47.618099999999998     47.396800000000006
C      43.585450000000002     48.758699999999990     46.796700000000001
C      44.312350000000002     49.748300000000000     46.229100000000003
C      45.780349999999999     49.696299999999994     46.219299999999997
C      43.474049999999998     46.316499999999991     47.726100000000002
C      47.853349999999999     51.003999999999991     46.151800000000001
C      46.468649999999997     51.020600000000002     46.058100000000003
C      52.117249999999999     46.965299999999999     49.155000000000008
C      52.966049999999996     47.998499999999993     48.548200000000001
C      53.825449999999996     48.603799999999993     49.488900000000008
C      53.709049999999998     47.798599999999993     47.123600000000003
C      52.878449999999994     51.519499999999994     48.300199999999997
H      50.840049999999998     51.959999999999994     46.318800000000003
H      47.934550000000002     43.750399999999999     50.613099999999996
H      45.958649999999999     43.483100000000007     49.884800000000006
H      50.485849999999992     45.094600000000000     50.013600000000004
H      48.363750000000003     51.652699999999996     45.386900000000004
H      45.858950000000000     51.831099999999992     45.573500000000003
H      43.885449999999999     50.625699999999995     45.839700000000001
H      52.587550000000000     46.047100000000000     48.890599999999999
H      52.287450000000000     47.002299999999991     50.189600000000006
H      41.408549999999998     48.438800000000001     47.417800000000000
H      53.162050000000001     49.074600000000004     50.453099999999999
H      53.962249999999990     49.717900000000000     49.081400000000002
H      54.591450000000002     47.866199999999992     49.690300000000001
H      53.935749999999999     46.818600000000004     47.269500000000001
H      54.584750000000007     48.649099999999990     47.174100000000003
H      53.021750000000004     47.661900000000003     46.304400000000001
H      53.913649999999997     51.323399999999992     48.604499999999994
H      53.240549999999992     52.516899999999993     47.622000000000000
H      52.254649999999998     52.062799999999996     49.126300000000001
N      44.199349999999995     45.285399999999996     48.199999999999996
O      42.283049999999996     46.304499999999990     47.452800000000003
O      42.227649999999997     48.841899999999995     47.051099999999998
