17

C      48.800100000000000     47.979999999999990     48.046099999999996
C      47.456099999999999     47.206699999999998     47.854499999999994
C      48.573200000000007     49.209899999999990     48.806300000000000
C      46.238300000000002     47.846599999999995     48.137300000000003
C      49.904800000000002     47.710399999999993     47.321000000000005
C      47.518500000000010     45.940100000000001     47.211499999999994
C      47.245500000000000     49.758999999999986     49.121999999999993
C      46.033200000000001     49.136799999999994     48.695500000000003
C      49.957500000000003     46.419899999999998     46.594299999999997
C      48.740300000000012     45.821199999999990     46.604900000000001
H      49.485200000000013     49.777099999999990     49.215799999999994
H      45.467400000000005     47.130399999999995     47.984199999999994
H      50.858800000000009     48.187600000000003     47.495799999999996
H      46.825300000000006     45.250100000000003     47.023099999999999
H      47.078400000000009     50.749899999999997     49.782299999999999
H      45.089700000000001     49.435999999999993     49.259700000000002
H      50.910299999999999     46.441099999999992     46.217700000000001
