52

C      50.905089999999987     47.495699999999992     47.803949999999986
C      50.571610000000000     46.564499999999995     48.808449999999986
C      43.961250000000000     49.398099999999999     48.853549999999991
C      43.212950000000014     48.003699999999995     48.762049999999995
C      49.862719999999996     48.492599999999996     47.573349999999998
C      49.298069999999996     46.139099999999999     48.977149999999995
C      45.103896999999996     49.750399999999999     48.278849999999998
C      44.109850000000030     46.979399999999998     48.731249999999996
C      47.364370000000001     48.944400000000002     47.566349999999993
C      46.796099999999996     46.581299999999999     48.767549999999993
C      48.455799999999996     48.052099999999996     47.767049999999998
C      48.120190000000001     46.821899999999999     48.447049999999997
C      46.113360000000000     48.639200000000002     48.032649999999997
C      45.621850999999999     47.397199999999998     48.686949999999996
C      52.365460000000006     47.852599999999995     47.728749999999998
C      53.391619999999996     47.149699999999996     48.390549999999998
C      52.818719999999992     45.978200000000001     49.121450000000003
C      51.533400000000000     45.533900000000003     49.320749999999997
C      42.989650000000019     50.439099999999996     48.940749999999987
C      41.699649999999998     50.162000000000006     49.015849999999993
C      41.164349999999985     48.751599999999996     49.125749999999989
C      41.788350000000001     47.614300000000000     48.751449999999998
C      52.640439999999991     49.108999999999995     46.979149999999997
C      54.067330000000005     49.445099999999996     46.970249999999993
C      55.004649999999998     48.689200000000000     47.815549999999995
C      54.747549999999997     47.340900000000005     48.222749999999998
C      50.236969999999999     49.748500000000007     46.832249999999995
C      51.569719999999997     49.964699999999993     46.493350000000000
C      56.517350000000000     49.006299999999996     47.906849999999999
C      46.337119999999999     45.252300000000005     49.512949999999996
C      39.635749999999994     48.761300000000006     49.238749999999989
H      43.319049999999997     51.492099999999994     49.034849999999999
H      48.943129999999996     45.211900000000000     49.399049999999995
H      45.543216000000001     50.666200000000003     48.402749999999990
H      43.832149999999977     45.920500000000004     48.480550000000001
H      47.385849999999998     50.027500000000003     47.471449999999997
H      53.651049999999998     45.436000000000007     49.470750000000002
H      51.362559999999995     44.732500000000002     50.052649999999993
H      41.194649999999989     51.291300000000007     48.793749999999996
H      41.359349999999999     46.564899999999994     48.916349999999987
H      54.403489999999998     50.347600000000000     46.358549999999994
H      55.763649999999998     47.114000000000004     48.672649999999997
H      49.637279999999997     50.677300000000002     46.542049999999996
H      51.770549999999993     50.704800000000006     45.747149999999998
H      56.945349999999998     48.918899999999994     46.976349999999996
H      46.659579999999998     44.507900000000006     48.807549999999999
H      45.258914999999995     45.114900000000006     49.874749999999999
H      39.513749999999995     47.555499999999995     49.489950000000000
H      39.037650000000006     49.675300000000007     48.360249999999986
H      39.204149999999991     49.474500000000006     49.912749999999996
H      46.936149999999998     44.883499999999998     50.252850000000002
O      56.962349999999994     49.820899999999995     48.659849999999999
