23

C      48.113249999999994     49.872086499999988     46.668949999999995
C      47.833149999999996     50.614686500000005     47.964650000000006
C      48.449850000000005     47.832186499999992     48.176050000000004
C      47.610449999999993     46.636586499999993     47.918749999999989
C      48.269449999999999     48.537686499999992     46.795349999999999
C      46.603249999999996     46.358786499999994     46.976849999999999
C      49.403849999999998     47.967786500000003     49.203950000000006
C      47.808150000000005     45.559686499999998     48.815650000000005
C      47.813949999999998     47.823786499999997     45.564949999999996
C      46.895750000000000     46.863286500000001     45.738849999999999
C      49.306850000000004     47.060386499999993     50.317649999999986
C      48.748150000000003     45.787886499999999     49.763450000000006
H      48.527949999999997     51.368013500000004     48.617649999999998
H      46.872849999999993     51.222747500000011     47.558449999999993
H      48.103450000000002     50.350286499999996     45.617949999999993
H      47.743749999999999     49.748786499999994     48.889449999999997
H      45.937750000000001     45.489786499999994     46.746549999999999
H      49.895450000000004     48.926086499999997     49.203850000000003
H      47.389149999999994     44.631986499999996     48.672449999999998
H      48.124649999999995     48.260586500000002     44.703850000000003
H      46.624749999999999     46.544786500000001     44.722949999999997
H      50.062249999999999     47.321286499999999     51.296149999999997
H      48.854350000000004     44.804986499999998     50.233149999999995
