18

C      47.220899999999993     47.393172999999997     47.877449999999989
C      48.594200000000001     48.097955000000013     48.328149999999994
C      46.613500000000002     46.321494999999999     48.605450000000005
C      49.453800000000001     47.241946000000006     49.082849999999993
C      46.353299999999997     48.174965000000000     47.007549999999995
C      48.996899999999997     49.264755000000008     47.810450000000003
C      47.573700000000002     45.617195000000002     49.462950000000006
C      49.007899999999999     45.913495000000033     49.305949999999996
C      47.023699999999998     49.354335000000006     46.523349999999994
C      48.259900000000002     49.929654999999997     46.746849999999995
H      45.652000000000001     45.807995000000027     48.670550000000006
H      50.545800000000000     47.833655000000007     49.228149999999999
H      45.454200000000000     47.705092000000008     46.680650000000000
H      50.012999999999991     49.697855000000004     48.050049999999999
H      47.182899999999997     45.022794999999988     50.205749999999995
H      49.456500000000005     45.184595000000030     50.072350000000000
H      46.348799999999997     49.951325000000011     45.794250000000005
H      48.656199999999998     50.977205000000012     46.594750000000005
