39

C      49.007799999999989     47.250199999999992     49.497149999999991
C      48.549100000000003     46.247800000000005     50.605850000000004
C      46.143999999999998     44.517099999999992     46.843350000000001
C      48.781100000000002     46.857499999999995     48.212249999999997
C      47.458199999999998     45.344400000000000     50.261550000000000
C      47.176700000000004     45.502400000000002     46.657049999999998
C      45.968700000000005     44.268700000000003     48.279750000000007
C      47.661399999999993     45.914399999999993     48.007550000000009
C      46.899200000000000     45.226899999999993     48.948250000000002
C      49.664700000000003     48.427100000000003     49.792150000000007
C      49.994400000000006     48.765399999999993     51.158550000000005
C      49.864500000000000     47.680600000000005     52.152750000000012
C      49.256599999999999     46.419000000000004     51.831350000000000
C      50.232700000000001     49.188200000000002     48.657250000000005
C      50.220400000000005     50.721699999999991     48.832949999999997
C      50.372000000000007     50.136199999999995     51.061650000000000
C      50.060399999999994     48.747499999999995     47.259550000000004
C      49.357599999999998     47.509899999999995     47.011949999999999
C      48.803800000000003     47.105699999999992     45.680850000000007
C      47.677600000000005     46.082500000000003     45.458150000000003
C      47.279599999999995     45.789899999999996     44.030349999999999
C      50.286800000000007     51.612100000000005     47.855750000000000
C      46.704000000000001     44.376699999999992     51.150850000000005
H      46.211499999999994     43.942299999999996     45.843050000000005
H      45.355200000000004     43.468700000000005     48.805949999999996
H      50.285599999999995     47.878599999999999     53.126249999999999
H      48.996699999999997     45.636999999999993     52.559550000000002
H      50.251200000000004     49.466100000000004     46.425650000000005
H      49.317000000000000     47.658600000000000     44.872050000000002
H      46.164399999999993     45.508400000000002     43.838650000000001
H      49.954699999999995     51.219900000000003     52.610950000000003
H      49.898199999999996     51.415900000000001     46.927250000000001
H      50.144500000000001     52.531299999999995     48.240049999999997
H      47.247899999999994     44.019900000000000     52.013650000000013
H      46.035500000000006     43.623899999999999     50.611850000000004
H      45.819399999999995     44.916199999999996     51.743050000000011
N      50.644799999999996     50.988599999999998     50.195949999999996
O      47.736399999999996     46.014500000000005     42.873750000000001
O      50.367600000000003     50.470800000000004     52.430250000000001
