6

C      47.905399999999993     47.443049999999992     47.748999999999995
C      48.200299999999999     48.710350000000005     48.026800000000001
H      46.867699999999999     46.937550000000002     48.109099999999998
H      48.475899999999996     46.731150000000000     47.129600000000003
H      49.132300000000001     49.268850000000000     47.844199999999994
H      47.559100000000001     48.895049999999998     48.870399999999997
