18

C      48.605349999999994     48.133820000000000     47.389499999999991
C      47.630549999999999     47.718070000000004     48.446500000000000
C      48.402749999999997     48.060620000000007     46.049199999999999
C      46.820249999999994     46.571990000000007     48.030100000000004
C      49.541150000000002     49.156520000000008     48.081600000000009
C      47.278849999999998     48.292820000000013     49.671300000000002
C      47.373549999999994     47.139569999999999     45.683000000000000
C      46.436349999999997     46.553410000000007     46.611899999999999
C      49.456050000000005     49.200620000000008     49.466300000000004
C      48.428749999999994     48.720220000000005     50.389000000000003
H      49.059449999999998     48.243019999999994     45.116599999999998
H      46.169550000000001     46.225670000000001     48.857399999999998
H      50.473950000000002     49.668720000000000     47.758299999999991
H      46.307649999999995     48.278120000000001     50.280400000000000
H      47.268749999999997     47.064480000000003     44.617699999999999
H      45.526049999999998     46.062980000000003     46.212600000000002
H      50.060249999999996     49.937019999999997     50.028199999999998
H      48.274149999999992     49.252820000000007     51.382300000000001
