18

C      47.315349999999995     47.440099999999987     48.368299999999991
C      48.172750000000008     48.324399999999990     47.507199999999997
C      46.049549999999996     47.778599999999990     48.891700000000000
C      47.609250000000003     49.591499999999989     47.242599999999996
C      47.942850000000007     46.146099999999997     48.625799999999998
C      49.556550000000001     48.278099999999995     47.189200000000000
C      45.796450000000007     49.204799999999999     48.995699999999999
C      46.498350000000002     50.045999999999999     48.017299999999999
C      49.302149999999997     46.074999999999996     48.198399999999999
C      50.178550000000001     47.069999999999993     47.567699999999995
H      45.321550000000002     47.053699999999992     49.213599999999992
H      48.056449999999998     50.274899999999995     46.555000000000000
H      47.701350000000005     45.632499999999993     49.445000000000000
H      50.150650000000013     49.160299999999992     46.663100000000000
H      44.816249999999997     49.594299999999997     49.229199999999999
H      46.220150000000004     50.989600000000003     47.417800000000000
H      49.521950000000004     45.010399999999997     48.627099999999999
H      51.183750000000003     46.731999999999992     47.107599999999998
