26

C      47.532550000000001     46.915199999999999     47.777684999999991
C      47.110249999999994     48.192299999999996     47.615364999999997
C      52.148349999999994     48.143899999999995     46.748654999999999
C      51.666749999999993     49.459399999999995     47.048405000000002
C      48.939149999999998     46.643499999999996     47.590244999999996
C      48.115150000000000     49.095400000000005     47.200204999999997
C      51.285049999999998     47.102799999999995     46.595794999999995
C      50.420049999999989     49.917399999999994     46.978044999999995
C      49.917049999999989     47.423700000000004     47.121735000000001
C      49.438449999999989     48.921900000000001     47.020614999999992
C      46.708050000000000     45.975100000000005     48.654904999999999
C      45.311949999999996     46.355399999999996     48.852694999999997
C      44.954049999999995     47.619300000000003     48.562735000000004
C      45.745449999999991     48.579599999999992     48.537745000000001
C      43.589950000000002     47.714899999999993     48.758184999999997
H      53.080749999999995     47.872499999999995     46.625815000000003
H      52.646149999999992     50.000399999999992     47.047084999999996
H      48.806150000000002     45.641600000000004     47.244304999999997
H      48.137949999999989     50.563300000000005     47.320104999999998
H      51.412949999999995     46.001699999999992     46.308284999999998
H      50.302449999999993     51.079400000000000     46.773134999999996
H      44.491149999999990     45.593899999999998     48.962254999999999
H      45.599750000000000     49.138100000000001     49.383105000000000
H      43.138449999999992     47.420899999999996     49.691715000000002
H      42.919250000000005     47.925199999999997     47.756415000000004
O      46.998449999999991     44.920600000000000     49.181425000000004
