5

C      48.075049999999990     47.838400000000000     47.933800000000005
H      47.883550000000007     47.233199999999997     48.949700000000000
H      47.103550000000006     48.613399999999999     47.780100000000012
H      48.323050000000002     47.437899999999999     47.050300000000000
H      48.896449999999994     48.766800000000003     47.759000000000007
