30

C      48.638599999999997     45.406199999999998     50.328199999999995
C      48.708199999999991     45.185599999999994     51.544999999999995
C      48.225999999999999     47.146799999999999     45.843100000000000
C      48.563699999999997     46.836100000000002     44.330199999999998
C      48.565600000000003     49.050500000000000     49.855299999999993
C      47.983999999999995     49.170999999999992     48.456600000000002
C      48.713999999999999     47.719499999999996     50.432399999999994
C      48.925299999999993     49.051900000000003     47.290699999999994
C      48.474899999999991     50.079499999999996     50.851800000000004
C      46.748499999999993     50.075199999999995     48.527399999999993
C      48.449100000000001     46.699900000000000     49.515999999999998
C      49.251599999999996     48.158999999999992     46.255900000000004
C      47.132099999999994     50.492499999999993     50.937599999999996
C      46.394599999999997     50.784199999999998     49.704699999999995
H      48.534800000000004     44.611800000000002     49.703899999999997
H      48.234200000000001     46.002099999999999     52.131700000000002
H      49.281499999999994     44.182900000000004     52.032400000000003
H      47.350200000000001     47.994099999999989     45.986600000000003
H      48.004199999999997     46.284799999999990     46.454299999999996
H      48.840599999999995     45.918400000000005     44.680000000000000
H      47.553600000000003     46.940799999999996     43.868299999999998
H      49.391099999999994     47.488900000000001     43.946599999999997
H      48.740199999999987     47.456400000000002     51.587399999999995
H      49.523799999999994     49.863199999999992     46.888900000000000
H      48.800599999999989     49.975799999999992     51.925499999999992
H      46.065500000000000     50.179400000000001     47.492799999999995
H      48.183199999999999     46.824900000000000     48.476700000000001
H      50.203299999999999     48.036999999999992     45.511199999999995
H      46.815699999999993     51.145699999999991     51.760500000000000
H      45.796700000000001     51.817099999999996     49.752400000000002
