18

C      47.294049999999999     48.363549999999989     47.394049999999993
C      47.711150000000004     47.865049999999997     48.918150000000004
C      47.734649999999988     49.652549999999998     47.155850000000001
C      48.042849999999987     48.932749999999992     49.707850000000001
C      46.940950000000001     47.477750000000000     46.432249999999996
C      47.374949999999998     46.566749999999999     49.361649999999990
C      48.494450000000001     50.520449999999997     47.975349999999999
C      48.645349999999993     50.088150000000006     49.263849999999998
C      46.737449999999995     46.188749999999999     47.067050000000002
C      46.996849999999995     45.762249999999995     48.290050000000001
H      47.518949999999990     49.905049999999996     46.087949999999999
H      48.657650000000004     48.887250000000002     50.745550000000001
H      46.734549999999999     47.673849999999995     45.254449999999999
H      47.405150000000006     46.401649999999997     50.364550000000001
H      49.208749999999995     51.351450000000000     47.779549999999993
H      49.506249999999994     50.638349999999996     49.754950000000001
H      46.493750000000006     45.056950000000001     46.619950000000003
H      46.786349999999999     44.648550000000000     48.466250000000009
