18

C      48.719600000000000     48.004849999999998     47.304499999999990
C      47.344900000000003     47.961950000000002     48.194599999999987
C      48.738400000000006     49.333849999999998     46.925899999999992
C      46.624800000000000     49.032849999999996     48.409499999999987
C      49.324000000000005     46.903850000000006     46.740400000000001
C      47.456200000000003     46.819450000000003     49.175300000000000
C      47.792000000000009     50.466250000000002     46.922099999999993
C      46.670999999999999     50.217550000000003     47.605699999999992
C      49.095599999999997     45.692449999999994     47.648999999999994
C      48.335600000000007     45.800349999999995     48.847599999999993
H      48.184699999999999     44.953850000000003     49.427499999999988
H      49.546600000000005     49.246250000000003     46.300499999999992
H      45.877699999999997     49.135350000000003     49.198899999999988
H      50.178800000000003     47.077449999999999     45.908200000000001
H      47.011100000000006     46.912449999999993     50.091799999999999
H      48.083500000000008     51.253150000000005     46.256999999999998
H      45.821199999999997     50.864549999999994     47.744699999999987
H      49.990900000000003     44.746849999999995     47.457099999999990
