5

C      47.892409999999991     48.192449999999994     47.830499999999986
H      48.803640000000001     48.227850000000004     47.176100000000005
H      47.196359999999999     48.928950000000000     47.498400000000004
H      47.561349999999997     47.593249999999998     48.823899999999995
H      47.797859999999993     47.071050000000000     47.571200000000005
