18

C      48.122389999999989     48.580749999999995     48.630330499999985
C      47.342590000000001     48.396149999999999     47.326580499999992
C      49.236969999999999     49.530750000000005     48.683110499999998
C      47.368449999999996     49.385849999999998     46.165890500000003
C      47.882829999999998     47.726849999999999     49.666990499999997
C      46.407640000000001     47.357050000000001     47.332880500000002
C      49.492710000000002     49.774750000000004     47.304910500000005
C      48.544680000000000     50.084550000000000     46.244750499999995
C      47.096629999999998     46.504550000000002     49.510760500000004
C      46.410409999999999     46.342149999999997     48.338530500000005
H      49.769169999999995     49.787650000000006     49.514900499999996
H      46.591419999999999     49.448650000000008     45.364359499999992
H      47.957920000000001     48.352950000000000     50.635640500000008
H      45.820270000000001     47.375050000000002     46.374510500000000
H      50.179729999999999     50.632350000000002     47.265290499999992
H      48.755749999999999     50.782550000000001     45.436610500000000
H      47.243649999999995     45.585749999999997     50.173150500000006
H      46.065019999999997     45.217449999999999     48.095340499999992
