54

C      47.870549999999994     49.647399999999998     49.398149999999987
C      48.782849999999996     49.335399999999993     50.610649999999993
C      47.944749999999999     44.849299999999999     48.737449999999995
C      48.273250000000004     44.656899999999993     50.085849999999994
C      47.613550000000004     48.546700000000001     48.484649999999988
C      48.894049999999993     48.110900000000001     51.315449999999998
C      47.522549999999995     46.127799999999993     48.320449999999994
C      48.478049999999996     45.914400000000001     50.836150000000004
C      47.577349999999996     47.275199999999998     49.147449999999992
C      48.251850000000005     47.188999999999993     50.447549999999993
C      48.287449999999993     50.748900000000006     48.648249999999990
C      48.886349999999993     51.937200000000004     49.300249999999991
C      49.373949999999994     51.701599999999999     50.647049999999993
C      49.468149999999994     50.482699999999994     51.200549999999993
C      48.164749999999998     43.732299999999995     47.885249999999999
C      48.147449999999992     42.405400000000000     48.339949999999988
C      48.602649999999997     42.140600000000006     49.715649999999997
C      48.383150000000001     43.269999999999996     50.612849999999995
C      47.855049999999991     50.973100000000002     47.229649999999992
C      47.862549999999999     52.304900000000004     46.751349999999988
C      48.727850000000004     53.461200000000005     47.049749999999989
C      49.134050000000002     53.212299999999999     48.569549999999992
C      47.047749999999994     49.961100000000002     46.497749999999996
C      47.164649999999995     48.696799999999996     47.077949999999987
C      47.022149999999996     47.465900000000005     46.312249999999992
C      46.980350000000001     46.256100000000004     46.919249999999991
C      50.354150000000004     53.266000000000005     46.439650000000000
C      48.144349999999989     54.447500000000005     46.531449999999992
C      46.208449999999999     45.079800000000006     46.247949999999989
C      45.631150000000005     45.342900000000000     44.885049999999993
C      47.991249999999994     41.448899999999995     47.115949999999998
H      49.346249999999998     47.549899999999994     52.116650000000007
H      48.737549999999999     45.443799999999996     51.920050000000003
H      49.985050000000001     52.527000000000001     51.175749999999994
H      50.168549999999996     50.256000000000000     51.988749999999996
H      48.365449999999996     44.094700000000003     46.745849999999990
H      48.745649999999998     41.121799999999993     50.057549999999992
H      48.650449999999992     43.017099999999999     51.564450000000008
H      47.317650000000000     52.272099999999995     45.660849999999996
H      49.083349999999996     54.106700000000004     49.432949999999991
H      46.675650000000005     50.312699999999992     45.617849999999990
H      46.811650000000000     47.685299999999998     45.276349999999994
H      47.400750000000002     54.669499999999999     47.260449999999992
H      48.743049999999997     55.360299999999995     46.284449999999993
H      50.207049999999995     53.237099999999998     48.299650000000000
H      46.713949999999997     44.034099999999995     46.278649999999999
H      45.475949999999997     44.581900000000005     46.865150000000000
H      46.148650000000004     45.770600000000002     43.883349999999993
H      44.702950000000001     44.601299999999995     44.798449999999988
H      44.600949999999997     46.052599999999998     44.791649999999990
H      46.969849999999994     41.400000000000006     47.000850000000000
H      48.498249999999999     40.639700000000005     47.483449999999991
H      48.404250000000005     42.086100000000002     46.018049999999988
O      51.399050000000003     52.898600000000002     46.174549999999996
