34

C      49.045399999999994     50.149199999999993     46.287949999999988
C      50.457099999999997     50.180599999999998     46.773849999999996
C      48.355999999999995     49.179200000000009     47.008049999999997
C      51.072199999999995     50.175200000000004     48.111549999999994
C      48.881199999999993     50.491300000000010     44.939650000000000
C      51.456000000000003     50.833700000000007     46.057449999999989
C      48.892600000000002     48.990700000000004     48.344449999999995
C      50.060199999999995     49.655600000000007     48.880349999999993
C      49.825599999999994     51.151300000000006     44.087949999999992
C      51.144599999999997     51.013800000000003     44.613249999999994
C      46.150399999999991     47.426699999999997     50.511849999999995
C      46.081400000000002     46.317200000000000     49.421149999999997
C      45.276899999999998     47.335599999999999     51.643949999999990
C      45.174899999999994     45.316900000000004     49.857049999999987
C      46.911799999999999     48.569200000000009     50.033249999999995
C      47.046999999999997     45.942300000000003     48.401849999999996
C      44.362299999999991     46.352699999999999     52.015549999999990
C      44.301400000000001     45.379700000000000     50.986449999999991
C      47.864899999999992     48.095300000000009     48.978649999999988
C      47.943200000000004     47.043000000000006     48.012549999999990
H      47.386899999999997     48.973900000000000     46.569049999999990
H      52.180499999999995     49.966900000000010     48.031749999999988
H      48.086500000000001     50.116399999999999     44.362649999999988
H      52.532899999999998     51.289100000000005     46.358049999999992
H      49.691699999999997     49.588800000000006     49.978249999999989
H      49.345699999999994     51.566000000000003     43.134850000000000
H      52.207999999999998     51.273400000000009     44.299149999999997
H      45.456000000000003     48.076000000000008     52.506449999999987
H      45.347099999999998     44.433999999999997     48.968949999999992
H      47.294600000000003     44.869200000000006     47.902049999999988
H      43.537199999999999     46.353300000000004     52.865150000000000
H      43.467100000000002     44.602800000000002     51.323349999999991
H      46.951899999999995     49.493400000000008     50.745949999999993
H      48.706599999999995     46.924300000000002     47.239649999999997
