18

C      47.098649999999992     47.508099999999992     48.772449999999999
C      47.467349999999989     48.366199999999992     47.736450000000005
C      47.634849999999993     48.038899999999998     50.022350000000003
C      47.940449999999991     49.705699999999993     48.043450000000007
C      47.205949999999994     46.152799999999999     48.351749999999996
C      47.191949999999999     48.116399999999999     46.241349999999997
C      48.072849999999995     49.330500000000001     50.391249999999999
C      48.353649999999995     50.213300000000004     49.270650000000003
C      47.413549999999994     45.810700000000004     47.004550000000009
C      46.979849999999992     46.853600000000000     45.921549999999996
H      48.131250000000001     47.324500000000000     50.794550000000001
H      48.228649999999995     50.350499999999997     47.202050000000000
H      47.611049999999999     45.365800000000000     49.169950000000000
H      47.236849999999997     48.979700000000008     45.499750000000006
H      48.848349999999989     49.374800000000000     51.090649999999997
H      49.116250000000001     51.027600000000000     49.025950000000009
H      47.903549999999989     44.972400000000000     46.687150000000003
H      46.883749999999999     46.561799999999998     44.909350000000003
