6

C      47.440306999999990     47.900049999999993     48.516849999999991
C      48.512660000000011     47.888949999999994     47.694749999999999
H      47.029071500000001     47.166749999999993     49.137450000000001
H      46.774099999999990     48.912750000000003     48.925750000000008
H      48.537110000000013     48.726049999999987     46.862549999999999
H      49.225900000000010     47.087249999999997     47.312550000000002
