49

C      47.702149999999989     45.148600000000002     44.225499999999982
C      45.661549999999998     45.336900000000007     47.484399999999994
C      45.975749999999998     46.489300000000007     48.173400000000001
C      52.235949999999995     51.012999999999998     49.331199999999995
C      46.798049999999996     44.784399999999998     46.743099999999998
C      52.916149999999995     51.269700000000007     47.949500000000000
C      51.215550000000000     49.975500000000004     49.522499999999994
C      47.419549999999994     46.972299999999997     48.176199999999994
C      52.530949999999997     50.503800000000005     45.370599999999996
C      51.847349999999999     49.479999999999997     44.756699999999995
C      49.935949999999998     48.216600000000007     48.204000000000008
C      52.337549999999993     50.483100000000000     46.819400000000002
C      47.929949999999998     45.559400000000004     46.335499999999996
C      51.015549999999998     49.153900000000000     48.283900000000003
C      48.404049999999998     46.573700000000009     47.138700000000000
C      51.183149999999998     48.643499999999996     45.674100000000010
C      49.690849999999998     47.402300000000004     47.029600000000002
C      50.325949999999999     47.607099999999996     45.645099999999999
C      51.439449999999987     49.435899999999997     46.987700000000004
C      47.826849999999986     47.563200000000002     49.484600000000000
C      49.041849999999990     48.169300000000000     49.369699999999995
C      49.704249999999995     48.651299999999999     50.648200000000003
C      50.830549999999995     49.388300000000008     50.801299999999998
C      45.148049999999998     46.799799999999998     49.386499999999998
C      45.658049999999996     47.158400000000007     50.639699999999991
C      46.966349999999998     47.710900000000002     50.859099999999998
C      44.323449999999994     44.881400000000006     47.203199999999995
C      43.363649999999993     44.211400000000005     46.540999999999997
C      44.752549999999999     46.737500000000004     51.861400000000003
C      47.044649999999997     47.973900000000008     52.061499999999995
H      42.553549999999994     43.662900000000000     46.943699999999993
H      46.626849999999997     45.234500000000004     44.254399999999990
H      48.257149999999989     45.416500000000006     43.248499999999993
H      52.504549999999995     51.759099999999997     50.045899999999989
H      46.412749999999996     43.961900000000007     46.373599999999996
H      53.446450000000006     51.018599999999999     44.838999999999999
H      51.803549999999994     49.382399999999997     43.644499999999994
H      50.306450000000005     46.741099999999996     44.991000000000000
H      48.997650000000000     48.226999999999997     51.365200000000002
H      51.069349999999993     49.915300000000009     51.782499999999999
H      44.066849999999995     46.392600000000009     49.367400000000004
H      43.344549999999998     43.915500000000002     45.539999999999992
H      45.271849999999993     45.829600000000006     52.447499999999991
H      45.184349999999995     47.299799999999998     52.751500000000007
H      47.687449999999998     47.223000000000006     52.730900000000005
H      47.114449999999998     49.135100000000001     52.228499999999997
H      43.605449999999998     46.755800000000001     51.873699999999999
N      48.569149999999986     45.427600000000005     45.184700000000007
O      53.414250000000003     52.337100000000000     47.717599999999990
