22

C      48.471799999999988     47.010799999999989     44.733649999999990
C      47.312300000000000     47.315700000000000     48.416150000000002
C      47.321799999999996     48.717800000000004     48.361649999999997
C      47.555999999999997     46.464199999999998     49.612650000000002
C      47.251899999999999     49.089800000000004     49.866450000000000
C      47.388099999999994     46.578799999999994     47.071950000000001
C      48.003899999999994     49.559699999999999     47.456449999999990
C      47.465799999999994     46.801200000000001     50.877049999999997
C      47.378099999999996     48.309199999999997     51.061250000000001
C      48.000799999999998     47.696400000000004     46.169550000000001
C      48.182099999999998     49.047400000000003     46.164949999999997
H      47.558599999999998     46.483699999999992     44.235250000000001
H      49.538800000000002     46.936000000000000     45.224150000000009
H      48.990199999999994     47.366899999999994     43.937550000000002
H      47.452299999999994     45.259999999999998     49.476250000000007
H      47.293599999999998     50.213900000000002     49.798049999999996
H      46.461199999999998     46.310200000000002     46.688850000000002
H      48.098900000000000     50.740000000000002     47.672649999999997
H      47.937599999999996     46.153699999999994     51.674850000000006
H      47.418499999999995     48.836400000000005     52.062449999999998
H      47.416899999999998     45.499599999999994     47.128749999999997
H      48.498300000000000     49.522699999999993     45.121749999999992
