18

C      47.575499999999998     47.940599999999996     48.869849999999992
C      48.551599999999993     48.547700000000006     47.894250000000000
C      46.244900000000001     48.248200000000004     48.535349999999994
C      48.043500000000002     49.490000000000002     46.977350000000001
C      47.988199999999999     46.674099999999996     49.273150000000001
C      49.831700000000012     48.131900000000002     47.729849999999999
C      45.736899999999999     49.389800000000001     47.744950000000003
C      46.675500000000000     49.866799999999998     46.914649999999995
C      49.311199999999999     46.155200000000001     49.208649999999992
C      50.230800000000002     47.072099999999999     48.601349999999996
H      45.421500000000002     47.536200000000001     48.825949999999992
H      48.846200000000003     49.903199999999998     46.347650000000002
H      47.040400000000005     46.298500000000004     49.754350000000002
H      50.468100000000000     48.720100000000002     46.969949999999997
H      44.706699999999998     49.653100000000002     47.861850000000004
H      46.542900000000003     50.709299999999999     46.245649999999998
H      49.718100000000000     45.290700000000001     49.686049999999994
H      51.293300000000002     46.741000000000000     48.966049999999996
