18

C      48.208649999999999     47.255899999999997     47.725899999999996
C      47.695650000000001     48.604799999999997     47.821700000000000
C      47.441550000000007     46.359300000000005     48.485500000000009
C      46.672749999999994     48.847299999999990     48.932099999999998
C      49.394149999999996     47.026899999999998     46.875400000000006
C      48.549449999999993     49.614999999999995     47.314399999999999
C      46.402249999999995     46.801400000000001     49.417800000000007
C      45.636949999999999     47.946799999999996     49.306000000000004
C      50.019049999999993     48.147900000000007     46.224800000000002
C      49.649349999999998     49.460999999999999     46.574300000000001
H      47.798349999999999     45.334900000000005     48.531900000000000
H      46.801349999999999     49.774100000000004     49.700600000000001
H      50.110849999999999     46.137000000000000     47.091000000000001
H      48.157849999999996     50.665099999999995     47.600700000000003
H      46.190049999999999     46.097300000000004     50.214700000000001
H      44.877650000000003     48.090199999999996     50.180900000000001
H      51.122349999999997     47.928500000000000     45.785299999999999
H      50.283850000000001     50.150300000000001     46.200300000000006
