39

C      49.589394999999996     48.202999999999989     48.380354999999994
C      49.265594999999998     49.486999999999995     47.773715000000003
C      45.061795000000004     47.002600000000001     46.880905000000006
C      48.709595000000000     47.140599999999992     47.916905000000007
C      47.991695000000000     49.797399999999996     47.125015000000005
C      46.371895000000002     46.507899999999992     47.175635000000007
C      44.585495000000002     48.156899999999993     46.179930000000006
C      47.403195000000004     47.562199999999990     47.266305000000003
C      46.987594999999999     48.925699999999992     46.658295000000003
C      50.638195000000003     48.008699999999990     49.286245000000001
C      51.597995000000004     49.229999999999990     49.211705000000002
C      51.413595000000001     50.512399999999985     48.563435000000005
C      50.194795000000006     50.596399999999988     47.750125000000004
C      50.918095000000001     46.674599999999998     49.695455000000003
C      52.091095000000003     46.475999999999999     50.484885000000013
C      52.933195000000005     47.628499999999988     50.493575000000000
C      52.791995000000007     48.828499999999991     49.820015000000005
C      48.771095000000003     45.829999999999998     48.578635000000006
C      50.047595000000008     45.378000000000000     49.111785000000005
C      44.025395000000003     45.831099999999992     47.207055000000004
C      43.097595000000005     45.669199999999989     46.136310000000002
C      45.679594999999999     49.008299999999991     46.188615000000006
H      47.521594999999998     50.789899999999989     47.340275000000005
H      46.564895000000000     45.422899999999998     47.609475000000003
H      52.034595000000003     51.395899999999983     48.655645000000014
H      50.075795000000006     51.662700000000001     47.268795000000004
H      53.891494999999999     47.512099999999990     50.913815000000007
H      53.702895000000005     49.441899999999990     49.924894999999999
H      48.225895000000001     44.963399999999993     48.154155000000003
H      50.142595000000007     44.337299999999999     49.138745000000007
H      42.879695000000005     44.944800000000001     45.086184999999993
H      42.834495000000004     46.865499999999997     45.788054000000002
H      45.673994999999998     50.028399999999991     45.789137000000004
H      43.548495000000003     48.918499999999995     46.485645000000005
H      53.453195000000001     45.070399999999992     50.555315000000014
H      50.852295000000005     45.164899999999989     48.274945000000002
H      42.108505000000001     45.306100000000001     46.298542000000005
O      44.081994999999999     45.575499999999991     48.371145000000006
O      52.493995000000005     45.216299999999990     50.637695000000001
