6

C      47.632549999999995     47.207799999999999     47.922599999999996
C      47.762850000000000     48.587100000000007     47.641600000000004
H      47.287250000000000     49.392399999999995     48.242100000000008
H      47.528149999999997     47.195500000000003     48.968299999999999
H      48.353750000000005     46.607600000000005     47.439799999999998
H      48.712750000000000     48.880099999999999     47.031700000000001
