53

C      49.206549999999993     49.977899999999991     48.602449999999990
C      50.048849999999995     49.199700000000000     47.714849999999998
C      45.276249999999997     47.404600000000002     47.338850000000008
C      46.161250000000003     46.142000000000003     47.356449999999995
C      47.799550000000004     49.870100000000001     48.652749999999997
C      49.578449999999997     47.978299999999997     47.050449999999998
C      45.993649999999995     48.631799999999998     47.553350000000009
C      47.563150000000000     46.492500000000000     47.877449999999996
C      47.217549999999996     48.608400000000003     48.253550000000004
C      48.339250000000000     47.659900000000000     47.707650000000001
C      49.980550000000001     51.043399999999998     49.285150000000002
C      51.299450000000000     51.450899999999997     49.187250000000006
C      52.098449999999993     50.561599999999999     48.498249999999999
C      51.532149999999994     49.373399999999997     47.894350000000003
C      46.975349999999999     51.028900000000000     49.044050000000013
C      47.568149999999996     51.344599999999993     50.486350000000016
C      48.988750000000003     51.989299999999993     50.019450000000006
C      52.700949999999999     47.163899999999998     46.992450000000005
C      52.262849999999993     48.596400000000003     46.677750000000003
C      43.911749999999998     47.058000000000000     47.702150000000003
C      43.256750000000004     48.123300000000000     48.107349999999997
C      45.076550000000005     44.187100000000001     45.969450000000009
C      45.713649999999994     45.051699999999997     46.674750000000003
C      52.362349999999999     49.196399999999997     45.496049999999997
C      43.345250000000000     45.623100000000001     47.886449999999996
C      48.387549999999997     45.203800000000001     47.709150000000008
H      45.495849999999997     49.581099999999999     47.292850000000001
H      45.925049999999999     50.733600000000003     49.143349999999998
H      47.128549999999997     51.981900000000003     48.478449999999995
H      47.160450000000004     52.261100000000006     51.114050000000006
H      47.721550000000001     50.710799999999999     51.312449999999998
H      49.488450000000000     52.467500000000001     50.757050000000007
H      48.599950000000000     52.774299999999997     49.240049999999997
H      53.165450000000000     47.170499999999997     48.007050000000007
H      52.972050000000003     46.558500000000002     46.035049999999998
H      43.473549999999996     49.267800000000001     47.670850000000002
H      42.197449999999996     47.820700000000002     48.290549999999996
H      44.387349999999998     44.708300000000001     45.219350000000006
H      44.609850000000002     43.225700000000003     46.235550000000003
H      47.820450000000001     44.414800000000000     47.406250000000000
H      52.462349999999994     52.340600000000002     50.571950000000001
H      53.802550000000004     50.812300000000000     47.257350000000002
H      50.111049999999999     47.073799999999999     46.597250000000003
H      52.268849999999993     50.187700000000000     45.474550000000008
H      52.525449999999999     48.719099999999997     44.687550000000002
H      42.509650000000001     45.652900000000002     48.611250000000013
H      43.053649999999998     44.881000000000000     47.115650000000002
H      44.147050000000000     45.114400000000003     48.430149999999998
H      49.321850000000005     45.465800000000002     47.029250000000005
H      48.819350000000000     44.856499999999997     48.637250000000009
H      51.832249999999995     46.601999999999997     47.467150000000004
O      51.500250000000001     52.345500000000001     50.191450000000003
O      53.448249999999994     50.964000000000006     48.185649999999995
