47

C      48.689349999999990     44.811299999999996     48.468049999999998
C      47.661949999999997     44.953200000000002     47.354450000000000
C      46.868749999999999     49.227400000000003     50.032049999999998
C      45.669149999999995     48.807500000000005     49.233450000000005
C      48.539949999999997     46.022100000000009     49.333950000000002
C      46.427949999999989     45.716200000000001     47.479450000000000
C      47.730950000000000     48.095299999999995     50.022549999999995
C      47.362549999999992     46.974299999999999     49.274249999999995
C      46.425149999999995     46.968500000000006     48.158550000000005
C      49.764049999999990     43.898000000000003     48.534750000000003
C      49.866650000000000     42.959299999999999     47.346350000000001
C      48.567249999999994     42.678200000000004     46.492249999999999
C      47.688049999999997     43.836399999999998     46.388649999999998
C      47.031050000000000     50.249499999999998     50.916449999999998
C      45.909549999999989     51.173000000000002     50.820750000000004
C      44.659249999999993     50.955100000000002     50.241650000000007
C      44.486449999999998     49.612200000000001     49.626850000000005
C      49.690749999999987     46.187899999999999     50.153450000000007
C      50.756349999999991     45.271100000000004     50.180549999999997
C      50.798349999999992     44.068500000000000     49.380250000000004
C      46.144949999999987     52.499900000000011     51.427949999999996
C      45.386350000000000     53.702600000000004     51.120249999999999
C      46.668149999999990     43.554100000000005     45.371949999999998
C      45.514949999999992     44.344900000000003     45.491050000000001
C      44.798549999999999     54.837599999999995     50.871549999999999
C      51.603249999999996     43.319900000000004     49.944550000000007
C      47.829549999999990     41.551700000000004     46.264849999999996
H      50.677249999999994     43.107900000000001     46.683549999999997
H      48.195450000000001     48.194100000000006     50.775750000000002
H      50.377449999999989     42.078500000000005     47.690250000000006
H      47.957049999999988     50.397900000000007     51.476650000000006
H      43.785949999999993     51.631100000000004     50.296650000000000
H      43.400050000000000     49.373300000000000     49.331249999999997
H      50.081949999999999     47.017600000000002     50.988250000000008
H      51.605749999999993     45.620300000000000     50.994850000000000
H      47.236649999999990     52.317899999999995     51.747150000000005
H      44.833749999999988     43.554600000000001     45.895550000000000
H      45.358249999999991     44.870100000000008     44.523849999999996
H      44.310150000000000     55.381900000000002     51.590550000000007
H      44.310249999999989     54.888800000000003     49.822150000000008
H      51.372549999999997     42.757700000000000     50.929150000000007
H      52.599950000000000     43.471600000000002     49.550150000000002
H      46.810749999999992     41.607700000000001     45.729150000000004
H      48.083749999999988     40.618099999999998     46.695549999999997
N      45.557649999999988     47.863700000000009     48.311850000000007
O      46.898750000000000     43.166499999999999     44.252849999999995
O      45.524749999999990     45.583600000000004     46.530150000000006
