49

C      51.935259999999985     48.174749999999996     53.681799999999996
C      50.467759999999998     47.479650000000007     50.110100000000003
C      49.021689999999992     47.585550000000005     50.239800000000002
C      44.163069999999991     47.068450000000006     45.808599999999998
C      44.890569999999997     46.702750000000002     47.026699999999991
C      50.945889999999991     47.602350000000001     48.795900000000003
C      48.102520999999996     50.399150000000006     41.914500000000004
C      48.346764999999991     48.013050000000000     49.010499999999993
C      45.085470000000001     47.385250000000006     44.824699999999993
C      46.159770000000009     47.087750000000000     47.549599999999998
C      46.348869999999991     49.222350000000006     42.872600000000006
C      50.374049999999997     50.326049999999995     43.162499999999994
C      51.033469999999994     49.578450000000004     44.187399999999997
C      51.012749999999997     48.382750000000001     46.445200000000000
C      49.005129999999994     50.170550000000006     42.966799999999992
C      50.413069999999991     47.890650000000001     47.530999999999992
C      50.356469999999987     48.944149999999993     45.218800000000002
C      48.915469999999999     47.951950000000004     47.749600000000001
C      46.383870000000002     48.070850000000000     45.300299999999993
C      46.870970000000000     49.022350000000003     44.234099999999998
C      46.819870000000009     47.802650000000000     46.504099999999994
C      48.157133999999999     49.508150000000001     44.333500000000001
C      48.873079999999987     48.857450000000000     45.333399999999997
C      48.238709999999998     48.195350000000005     46.506699999999995
C      44.583170000000024     47.564450000000001     43.484200000000001
C      45.082669999999993     48.634450000000001     42.650499999999994
C      51.226179999999985     47.464050000000000     51.430199999999999
C      50.747669999999985     47.984450000000002     52.581999999999994
C      49.379429999999999     48.069050000000004     52.696600000000004
C      48.502232999999990     47.573850000000000     51.710099999999997
H      46.220369999999988     44.952250000000006     48.755099999999999
H      51.884189999999990     47.459750000000000     54.764499999999998
H      52.440919999999991     49.226749999999996     53.925200000000004
H      52.942629999999980     47.945450000000001     53.359999999999999
H      43.057370000000020     47.168750000000003     45.755499999999998
H      44.309569999999994     46.927350000000004     47.950599999999994
H      52.027639999999991     47.630150000000000     48.627499999999998
H      48.770949999999999     51.015550000000005     41.235500000000002
H      47.325970000000012     48.318550000000002     49.313900000000004
H      52.193829999999991     49.693250000000006     44.140500000000003
H      52.077979999999997     48.420249999999996     46.518799999999999
H      43.625669999999971     46.866250000000001     43.461600000000004
H      44.785269999999997     48.771250000000002     41.564300000000003
H      52.407259999999994     47.316250000000004     51.385599999999997
H      47.520970000000005     47.795450000000002     51.522300000000001
H      49.450959999999995     48.426950000000005     53.778999999999996
H      50.767359999999996     51.047749999999994     42.614800000000002
N      46.754669999999990     50.055750000000003     41.914999999999992
S      47.085170000000005     45.461450000000006     47.889200000000002
