6

C      47.456649999999996     47.602749999999986     48.155699999999996
C      48.511150000000008     48.479450000000000     47.956099999999992
H      46.827450000000006     47.635149999999996     47.376400000000004
H      48.744350000000004     49.090549999999993     46.997299999999996
H      47.586850000000005     46.909450000000007     49.002700000000004
H      49.172549999999994     48.719549999999998     48.795199999999994
