18

C      47.982149999999997     47.090149999999994     48.919149999999988
C      47.357150000000004     46.940149999999996     47.532849999999996
C      47.571050000000000     48.182449999999996     49.866050000000001
C      45.934950000000001     47.322949999999999     47.540049999999994
C      49.245750000000001     46.480049999999999     49.254949999999994
C      48.364350000000002     46.615249999999996     46.577250000000006
C      46.280850000000001     48.714850000000006     49.650149999999996
C      45.514150000000001     47.987450000000003     48.654150000000001
C      50.232250000000008     46.335249999999995     48.291749999999993
C      49.674350000000004     46.589549999999996     47.054150000000007
H      48.300449999999998     48.750849999999993     50.459549999999993
H      45.196150000000003     46.897249999999993     46.703850000000003
H      49.717150000000004     46.500149999999998     50.166250000000005
H      48.056849999999997     46.445249999999994     45.540450000000007
H      46.386250000000004     49.729649999999999     50.102649999999997
H      44.414950000000005     48.202649999999998     48.729150000000004
H      51.585049999999995     46.270350000000001     48.540450000000007
H      50.366950000000003     46.466850000000001     46.205650000000006
