18

C      48.288549999999994     48.038799999999995     47.127626499999991
C      48.040050000000001     48.110299999999995     48.624016500000010
C      47.984949999999998     49.181600000000003     46.305716500000003
C      47.219549999999998     49.127600000000001     49.174136500000003
C      48.871450000000010     46.869500000000002     46.495106500000006
C      48.464550000000003     47.095600000000005     49.472326500000008
C      47.135150000000003     50.146699999999996     46.978906499999994
C      46.723550000000003     50.215400000000002     48.346586500000001
C      49.254950000000001     45.777299999999997     47.324006499999996
C      49.051850000000002     46.012400000000000     48.697066500000005
H      48.088450000000002     49.008200000000002     45.326033499999994
H      46.940950000000001     48.973100000000002     50.245656499999996
H      48.828049999999990     46.939700000000002     45.382410500000006
H      48.356949999999998     47.077200000000005     50.673966500000006
H      46.734050000000003     51.108999999999995     46.648096499999994
H      46.033650000000002     50.884699999999995     48.843906500000003
H      49.966349999999998     44.891000000000005     47.176626499999998
H      49.541750000000008     45.109200000000001     49.195886500000000
