18

C      47.553699999999992     47.349499999999999     48.392619999999972
C      48.506499999999996     48.323300000000003     47.753519999999980
C      47.550599999999996     47.091200000000001     49.833519999999993
C      49.221100000000000     49.096299999999999     48.707559999999987
C      47.075499999999998     46.321899999999999     47.528419999999983
C      48.997899999999994     48.054900000000004     46.433939999999986
C      48.002800000000001     48.208799999999997     50.673879999999983
C      48.866700000000002     49.078100000000006     50.164419999999986
C      47.479399999999998     46.201000000000001     46.155889999999985
C      48.417899999999996     47.127400000000002     45.552110999999982
H      46.750200000000000     46.512100000000004     49.964399999999983
H      49.576799999999999     49.993899999999996     48.434819999999988
H      46.269900000000000     46.021200000000000     47.998349999999981
H      49.730100000000000     48.837000000000003     46.009459999999983
H      48.151000000000003     48.092500000000001     51.597209999999990
H      49.604899999999994     49.589900000000000     50.784529999999990
H      46.728500000000004     46.006100000000004     45.311215999999980
H      48.312300000000000     47.254800000000003     44.402790000000010
