18

C      47.773049999999998     47.420345999999995     48.879299999999994
C      48.176349999999999     48.485145999999993     47.941400000000002
C      48.877449999999996     46.749526000000003     49.379099999999994
C      49.501450000000006     49.065386000000004     48.030699999999996
C      46.411850000000001     47.056086000000001     48.574299999999994
C      47.385750000000002     49.271336000000012     47.134000000000000
C      50.208849999999998     47.142066000000000     49.198999999999998
C      50.535549999999986     48.301266000000005     48.613299999999995
C      45.564449999999994     47.502896000000000     47.530999999999992
C      46.054349999999999     48.779996000000004     46.879999999999995
H      48.705050000000000     45.939574000000000     49.959000000000003
H      49.489149999999995     50.060426000000000     47.416399999999996
H      46.265150000000006     46.250733000000004     49.175799999999995
H      47.799049999999994     49.791816000000004     46.224599999999995
H      51.177049999999994     46.758456000000002     49.673599999999993
H      51.553049999999999     48.792136000000006     48.697199999999995
H      44.446950000000001     47.242246000000002     47.634900000000002
H      45.509950000000003     49.172195999999992     46.040999999999997
