18

C      47.947699999999990     48.596049999999991     48.363859999999981
C      47.063800000000001     47.454549999999998     47.976559999999992
C      49.265299999999996     48.148049999999998     48.832960000000000
C      47.162399999999998     46.392150000000001     49.034659999999988
C      48.064999999999998     49.614849999999997     47.389259999999993
C      46.193500000000000     47.491750000000003     46.935359999999989
C      49.484499999999997     47.055750000000003     49.594526000000002
C      48.339100000000002     46.186650000000000     49.637874000000011
C      46.989199999999997     49.733950000000000     46.507759999999990
C      46.103099999999998     48.720750000000002     46.356459999999998
H      50.152200000000001     48.765450000000008     48.834059999999994
H      46.181999999999995     45.883150000000001     49.062759999999997
H      48.798199999999994     50.332250000000009     47.742359999999991
H      45.525900000000000     46.667650000000002     46.781559999999999
H      50.551600000000001     47.013150000000003     49.947392000000008
H      48.512999999999991     45.316650000000003     50.588740000000001
H      46.889499999999998     50.683349999999997     45.972159999999988
H      45.448399999999999     48.790950000000002     45.411259999999999
