18

C      47.227849999999989     49.055949999999989     47.875254999999989
C      48.698050000000002     48.613650000000000     47.980654999999999
C      46.676650000000002     49.181650000000005     46.517105000000001
C      49.083449999999992     47.508749999999999     47.104354999999998
C      46.771049999999995     49.373150000000010     49.181055000000001
C      49.481749999999998     48.794049999999999     49.124754999999993
C      47.404649999999997     48.358249999999998     45.668994999999995
C      48.074350000000003     47.144349999999996     46.221024999999997
C      47.471449999999997     49.247949999999996     50.385354999999997
C      48.904050000000005     48.971449999999997     50.372254999999996
H      45.722450000000002     49.618549999999999     46.318844999999996
H      49.871050000000004     46.736550000000001     46.576144999999997
H      45.560449999999996     49.693550000000002     49.145054999999999
H      50.439550000000004     48.545749999999998     49.052354999999999
H      47.693449999999991     48.647449999999999     44.645544999999998
H      48.178249999999998     46.306449999999998     45.477444999999996
H      46.976849999999992     49.334150000000001     51.249754999999993
H      49.399750000000004     48.989449999999998     51.354455000000002
