6

C      48.160049999999998     47.577249999999992     48.510649999999998
C      47.957850000000008     48.426850000000002     47.444550000000000
H      48.975949999999997     46.915450000000000     48.484450000000002
H      47.475949999999997     47.513850000000005     49.374649999999995
H      47.024050000000003     49.084550000000000     47.645850000000003
H      48.641450000000006     48.355150000000002     46.625350000000005
