49

C      48.623399999999990     48.818499999999986     48.227949999999993
C      47.335199999999993     48.371099999999998     48.013549999999995
C      44.909499999999994     51.421700000000001     46.453049999999990
C      49.153099999999995     50.191400000000002     47.726849999999999
C      46.385899999999999     49.200000000000003     47.270650000000003
C      48.763100000000001     52.118300000000005     46.361850000000004
C      48.262099999999997     50.929199999999994     46.862650000000002
C      46.910199999999996     50.437399999999997     47.104550000000003
C      49.695899999999988     48.103899999999996     48.938749999999999
C      49.257999999999988     46.781099999999995     49.342150000000004
C      48.052499999999995     46.103399999999993     48.828850000000003
C      46.969999999999999     46.984399999999994     48.483049999999992
C      50.893499999999996     48.646699999999996     49.579049999999995
C      51.910800000000002     47.685299999999998     49.815049999999999
C      51.738099999999996     46.321399999999997     49.750850000000000
C      50.328799999999994     45.867099999999994     49.702150000000003
C      51.143999999999998     50.074300000000008     49.475149999999985
C      50.335199999999993     50.760300000000001     48.332650000000001
C      50.717299999999994     52.009000000000000     47.862549999999999
C      50.147600000000004     52.457099999999997     46.662449999999993
C      44.881099999999996     49.201399999999992     47.040350000000004
C      44.104699999999994     50.233000000000004     46.280149999999992
C      45.659499999999994     46.382400000000004     48.764150000000001
C      48.051399999999994     44.574299999999994     49.189650000000000
C      49.059999999999995     43.642700000000005     49.545249999999996
C      50.250899999999994     44.404200000000003     49.703849999999989
C      46.687899999999999     44.241299999999995     49.348950000000002
C      45.621199999999995     45.182400000000001     49.393049999999988
C      44.061399999999999     52.593199999999996     45.930549999999997
C      52.010499999999993     50.562699999999992     50.194649999999996
H      44.761999999999993     53.480999999999995     45.926249999999996
H      53.060300000000005     48.107399999999998     50.017749999999992
H      52.386199999999995     45.407600000000002     50.057850000000002
H      50.673099999999998     53.270600000000002     46.114449999999991
H      51.613899999999994     52.456000000000003     48.364449999999991
H      48.106499999999997     52.985500000000002     45.799750000000003
H      44.889699999999998     47.093299999999999     48.431249999999991
H      44.106299999999997     48.433099999999996     47.505749999999992
H      42.939699999999995     50.133099999999999     46.261250000000004
H      45.407199999999996     43.084699999999998     50.099249999999984
H      50.834999999999987     43.628299999999996     50.300849999999997
H      48.961999999999996     42.519000000000005     49.912449999999993
H      44.448799999999999     44.867499999999993     49.713250000000002
H      44.004899999999999     52.520600000000002     44.794150000000002
H      43.092799999999997     52.622100000000003     46.542649999999995
H      52.765599999999999     51.061599999999999     49.454649999999987
H      52.646599999999999     50.381200000000007     51.205849999999998
N      46.077399999999997     51.511700000000005     47.041349999999994
O      46.358599999999996     42.979799999999997     49.735649999999993
