21

C      50.536049999999989     46.947149999999986     46.234800000000000
C      46.949549999999995     47.639249999999990     47.757800000000003
C      48.308449999999993     47.148749999999993     48.003900000000002
C      48.873249999999992     47.212949999999992     49.259600000000006
C      48.038749999999993     47.367249999999999     50.472899999999996
C      46.686249999999994     47.241949999999989     50.063600000000008
C      46.066449999999996     47.685549999999992     48.824799999999996
C      46.422549999999994     48.372149999999991     46.544499999999999
C      47.502749999999992     49.013349999999988     45.592100000000002
H      50.740149999999993     48.146149999999992     46.495000000000005
H      50.264549999999993     46.793949999999995     45.191699999999997
H      51.035450000000004     46.130549999999999     46.953900000000004
H      49.968249999999998     47.028449999999992     49.309600000000003
H      48.637349999999998     47.240049999999997     51.357799999999997
H      46.009749999999997     47.538449999999997     50.872000000000000
H      44.964549999999996     48.216549999999998     48.679200000000009
H      48.357449999999993     49.317849999999993     46.291899999999998
H      48.020549999999993     48.399049999999988     44.642200000000003
H      46.927849999999992     49.869450000000001     45.401700000000005
O      45.328049999999998     48.516349999999989     46.239599999999996
O      48.894149999999996     47.229849999999999     46.878299999999996
