18

C      47.185249999999989     48.248449999999984     47.761949999999999
C      48.632750000000001     48.083649999999992     48.225350000000006
C      46.351649999999992     47.055949999999996     47.714349999999996
C      49.022049999999993     46.862249999999989     48.751450000000006
C      46.654749999999993     49.473549999999989     47.577650000000006
C      49.570049999999995     49.088949999999997     47.741050000000001
C      46.931150000000002     45.850149999999999     47.993250000000003
C      48.290849999999992     45.705249999999992     48.439250000000001
C      47.661249999999995     50.461649999999992     47.569950000000006
C      49.032749999999993     50.175950000000000     47.162549999999996
H      45.310350000000000     46.913249999999991     47.009749999999997
H      49.819350000000000     46.575249999999997     49.327749999999995
H      45.655649999999994     49.543849999999992     46.991349999999997
H      50.689650000000000     48.929049999999989     47.530150000000006
H      46.192250000000001     44.977849999999989     47.937650000000005
H      48.617149999999995     44.717950000000002     48.956950000000006
H      47.044449999999998     51.282049999999998     47.407950000000000
H      49.673850000000002     50.964950000000002     46.672250000000005
