18

C      48.052799999999991     48.317349999999990     48.560749999999992
C      48.098200000000006     47.797550000000001     47.124549999999999
C      48.466300000000004     47.513149999999996     49.767350000000000
C      48.658000000000001     46.426050000000004     47.032550000000001
C      47.671300000000002     49.649250000000009     48.694350000000000
C      47.389400000000009     48.296950000000010     46.103749999999998
C      49.192499999999995     46.321150000000003     49.503950000000003
C      49.134299999999996     45.740949999999998     48.305049999999994
C      47.052700000000002     50.085450000000009     47.552750000000003
C      47.125100000000003     49.705449999999999     46.254249999999999
H      47.975200000000001     48.017449999999997     50.665549999999996
H      48.575000000000003     46.019149999999996     45.915450000000000
H      47.584000000000003     50.281250000000000     49.606150000000000
H      47.326700000000002     47.594850000000008     45.334450000000004
H      49.502899999999997     45.939949999999996     50.415849999999999
H      49.543099999999995     44.771349999999998     48.095950000000002
H      46.456900000000005     51.228650000000002     47.677949999999996
H      46.499600000000001     50.387650000000008     45.487749999999998
