18

C      47.751199999999997     48.107299999999988     48.607349999999997
C      48.387000000000000     48.306799999999996     47.362250000000003
C      47.972800000000007     49.161899999999989     49.596449999999990
C      49.478600000000000     49.335200000000000     47.146050000000002
C      46.868399999999994     46.931799999999996     48.567250000000001
C      48.394099999999995     47.413199999999996     46.195449999999994
C      48.706799999999987     50.208599999999990     49.147649999999999
C      49.748399999999990     50.252199999999988     48.165849999999992
C      47.395300000000006     45.852799999999995     47.693349999999995
C      48.072599999999994     46.061699999999995     46.436449999999994
H      47.502099999999999     48.967900000000000     50.807350000000000
H      49.906800000000004     49.460599999999999     46.229249999999993
H      45.868200000000002     46.720599999999997     49.172649999999990
H      48.363799999999998     47.953999999999994     45.192650000000000
H      48.571300000000008     50.916899999999998     49.945449999999994
H      50.131799999999998     51.241399999999999     47.994649999999993
H      47.176600000000008     44.758600000000001     48.137450000000001
H      47.701800000000006     45.421099999999996     45.749949999999998
