18

C      47.710699999999996     47.375299999999996     47.551749999999991
C      47.643700000000010     48.572099999999999     48.440349999999995
C      48.789600000000007     47.079900000000002     46.596450000000004
C      48.961799999999997     49.166100000000007     48.560850000000002
C      46.553399999999996     46.580999999999996     47.787350000000004
C      46.805400000000006     49.322899999999997     49.234749999999991
C      49.929400000000001     47.898699999999998     46.874849999999995
C      50.149100000000004     48.542600000000000     48.190049999999999
C      45.673699999999997     47.248200000000004     48.836849999999998
C      45.674300000000002     48.561799999999998     49.642650000000003
H      48.783500000000004     46.422800000000002     45.701250000000002
H      49.199600000000004     49.975299999999997     49.309849999999997
H      45.959900000000005     45.805799999999998     47.238950000000003
H      47.440300000000008     50.194200000000002     49.559049999999999
H      50.744500000000002     48.189399999999999     46.063149999999993
H      51.105199999999996     49.076299999999996     48.592050000000000
H      44.915900000000008     46.446300000000001     48.694350000000000
H      44.894800000000004     48.814799999999998     50.298749999999998
