18

C      47.191299999999991     48.479699999999994     48.047214999999994
C      48.763000000000005     48.897299999999994     48.361314999999991
C      46.679899999999996     47.479099999999995     48.791714999999996
C      49.229399999999998     48.365200000000002     49.532214999999994
C      46.569299999999998     49.073199999999993     46.941265000000001
C      49.454700000000003     49.710599999999999     47.535415000000000
C      47.371899999999997     46.783600000000000     49.845015000000004
C      48.598100000000002     47.339700000000001     50.307014999999993
C      47.533400000000000     49.546799999999998     45.991315000000000
C      48.875599999999999     49.607199999999999     46.175465000000003
H      45.634399999999999     47.211000000000006     48.701915000000000
H      50.358499999999992     48.389099999999999     49.532415000000000
H      45.773399999999995     48.682499999999997     46.414514999999994
H      50.365600000000001     50.103500000000004     47.596715000000003
H      46.923099999999998     45.896499999999996     50.199814999999987
H      49.060299999999998     46.822499999999998     51.203614999999999
H      47.224100000000000     49.460799999999999     44.796385000000001
H      49.690500000000000     49.482799999999990     45.397655000000000
