5

C      48.193034999999995     47.888099999999994     47.794349999999994
H      48.281755000000018     48.715100000000000     47.036049999999996
H      47.077365000000000     47.339600000000004     47.910050000000005
H      48.922635000000000     47.284900000000000     47.147449999999999
H      48.536325000000005     48.151500000000006     48.963950000000004
