18

C      48.811749999999989     47.966199999999994     47.965536999999991
C      47.466549999999991     48.509399999999999     47.713606999999996
C      49.022249999999993     46.511300000000006     48.055997000000005
C      46.549849999999999     47.632199999999997     47.166629199999996
C      49.584349999999993     48.674000000000007     48.881599999999999
C      47.275950000000002     49.889700000000005     47.586386999999995
C      48.195549999999990     45.756500000000003     47.179786199999995
C      47.031149999999990     46.317000000000007     46.724379999999982
C      49.408149999999999     50.072500000000005     48.860150000000004
C      48.377449999999989     50.617300000000000     48.013801000000001
H      49.780650000000001     45.996200000000002     48.862049999999996
H      45.637250000000002     48.048100000000005     46.766980000000011
H      50.257449999999999     48.173900000000003     49.578019999999995
H      46.270149999999994     50.226399999999998     47.092880000000001
H      48.488650000000000     44.469300000000004     46.820379999999993
H      46.392649999999996     45.497000000000000     46.421980000000005
H      50.362749999999998     50.782200000000003     49.087249999999997
H      47.847649999999994     51.530699999999996     48.271959999999993
