18

C      48.191699999999983     48.048961999999982     47.406899999999993
C      47.835200000000000     47.855362000000000     48.748100000000001
C      49.436399999999992     48.549961999999994     46.781199999999991
C      48.877400000000009     48.324961999999999     49.602499999999999
C      47.271299999999997     47.496161999999998     46.487000000000002
C      46.591200000000001     47.298062000000002     49.122700000000002
C      50.358000000000004     49.004961999999992     47.696300000000001
C      49.939099999999996     49.170462000000001     49.120599999999989
C      46.030400000000000     47.026161999999999     46.640899999999995
C      45.758600000000001     46.970962000000000     48.067999999999991
H      49.806600000000003     48.236761999999999     45.808000000000000
H      48.644599999999997     48.259561999999988     50.721899999999998
H      47.627200000000002     47.628361999999996     45.278100000000002
H      46.154299999999992     47.102061999999989     50.128200000000000
H      51.245500000000007     49.272561999999994     47.294399999999989
H      50.654600000000002     49.599637999999999     49.925199999999997
H      45.538299999999992     46.400362000000001     45.839899999999993
H      44.754499999999993     46.430861999999991     48.236899999999999
