5

C      48.159500000000001     48.035699999999999     48.130049999999997
H      47.837600000000002     47.241100000000003     47.334450000000004
H      47.126400000000004     48.264100000000013     48.636849999999995
H      48.733699999999999     47.296400000000006     48.665549999999996
H      48.873599999999996     48.758899999999997     47.625249999999994
