18

C      48.008299999999991     47.439199999999992     48.573049999999981
C      47.485200000000006     48.658900000000003     47.785849999999989
C      47.581800000000001     46.135899999999999     48.072849999999995
C      46.835700000000003     48.599000000000004     46.514449999999989
C      49.100300000000004     47.374400000000001     49.546749999999996
C      47.721600000000009     49.842500000000001     48.595949999999995
C      46.442800000000005     46.171999999999997     47.252549999999992
C      46.438000000000002     47.233400000000003     46.201749999999997
C      49.283400000000015     48.625000000000000     50.213349999999998
C      48.463200000000001     49.731799999999993     49.758549999999993
H      48.044100000000014     45.477300000000000     48.659450000000000
H      46.978600000000000     49.175600000000003     45.705049999999993
H      49.232200000000006     46.577900000000000     50.147449999999999
H      47.132100000000008     50.712100000000000     48.714049999999993
H      45.806899999999999     45.287900000000000     47.053649999999998
H      46.753900000000002     46.616799999999998     45.151350000000001
H      50.193100000000001     48.695599999999999     50.848649999999999
H      48.425700000000006     50.663799999999995     50.420849999999994
