6

C      48.025149999999996     47.447949999999985     48.034099999999995
C      47.979950000000009     48.612449999999995     47.611100000000000
H      48.718450000000011     47.303249999999991     48.883900000000004
H      47.136749999999999     46.732450000000000     47.911700000000003
H      48.863250000000001     49.267550000000000     47.421200000000006
H      47.192250000000008     49.074649999999991     47.116099999999996
