18

C      47.677999999999997     48.672699999999992     47.929499999999983
C      48.366399999999999     47.410600000000002     48.265299999999996
C      46.723200000000006     48.817399999999999     46.855499999999992
C      48.555399999999992     46.296900000000001     47.250199999999992
C      47.658699999999996     49.779100000000000     48.711100000000002
C      49.504300000000001     47.500300000000003     49.265500000000003
C      46.822400000000002     47.794699999999999     45.976100000000002
C      47.775300000000001     46.691000000000003     46.201700000000002
C      48.462100000000007     49.627000000000002     49.876099999999994
C      49.587600000000009     48.773800000000001     49.852499999999992
H      48.422399999999996     50.698500000000003     50.467599999999990
H      45.783100000000005     49.497799999999998     46.742199999999997
H      49.112000000000009     45.301499999999997     47.317700000000002
H      46.927400000000006     50.549199999999992     48.774000000000001
H      50.150000000000006     46.577700000000000     49.386899999999997
H      46.141700000000000     47.620199999999997     45.089799999999997
H      47.660499999999999     46.287799999999997     45.156399999999991
H      50.216899999999995     48.896900000000002     50.910200000000003
