5

C      48.620849999999997     48.613754999999998     47.873449999999998
C      47.694050000000004     47.704264999999992     48.156950000000009
H      48.019250000000000     46.811594999999997     47.701250000000002
H      49.523449999999997     49.188405000000003     47.552750000000003
H      46.476550000000003     47.890535000000000     48.447249999999997
