18

C      47.448989999999995     47.828899999999990     48.695099999999996
C      48.391539999999999     47.378400000000006     47.606000000000002
C      46.233979999999995     47.319200000000002     48.758000000000003
C      48.013840000000009     46.599100000000000     46.556600000000003
C      47.909439999999996     48.923200000000001     49.460999999999999
C      49.673040000000007     47.924600000000005     47.413899999999998
C      45.777600000000000     46.640099999999997     47.629500000000000
C      46.609110000000001     46.324800000000003     46.500799999999998
C      49.076039999999999     49.571700000000000     49.114500000000000
C      50.104939999999992     49.005500000000005     48.274999999999999
H      47.111190000000001     49.284700000000008     50.308700000000002
H      45.516739999999999     47.786099999999998     49.509900000000002
H      48.716240000000006     46.176099999999998     45.740300000000005
H      51.083739999999999     49.516799999999996     48.177800000000005
H      50.353540000000002     47.438800000000008     46.611400000000003
H      44.916260000000001     46.250200000000000     47.848500000000001
H      46.062019999999997     45.691899999999997     45.691299999999998
H      49.491340000000001     50.308100000000003     49.795500000000011
