18

C      48.400149999999996     48.321429999999985     47.753349999999998
C      47.302150000000005     47.736859999999993     48.366650000000000
C      49.341749999999998     49.151919999999990     48.561150000000005
C      47.048750000000005     48.103389999999997     49.817250000000008
C      48.544450000000005     47.801229999999997     46.438850000000009
C      46.565550000000009     46.646259299999997     47.832749999999997
C      48.640750000000004     49.869609999999994     49.577249999999999
C      47.451450000000001     49.422449999999998     50.264350000000000
C      47.596950000000000     46.990179999999995     45.759250000000002
C      46.497550000000011     46.362549999999999     46.470850000000006
H      50.403849999999998     49.158029999999997     48.507350000000010
H      46.863149999999997     47.163367999999998     50.379250000000006
H      49.412650000000006     48.097029999999997     45.991149999999998
H      45.596150000000002     46.135550000000009     48.389150000000008
H      49.123449999999998     50.397549999999995     50.458649999999999
H      47.052150000000005     49.783039999999993     51.236449999999998
H      47.229850000000006     46.830949999999994     44.763550000000002
H      45.784550000000003     45.602450000000005     46.012250000000002
