42

C      47.039649999999995     50.447699999999990     50.993600000000001
C      47.713049999999996     44.563900000000004     46.903999999999996
C      47.622849999999985     50.513000000000005     49.617500000000007
C      48.575849999999988     45.720799999999997     46.674800000000005
C      46.535550000000001     49.107900000000001     51.418899999999994
C      46.997649999999993     44.643799999999999     48.121300000000005
C      47.679549999999992     49.489999999999995     48.606899999999996
C      48.417549999999991     47.079700000000003     47.241200000000006
C      45.922649999999990     46.858900000000006     50.756500000000003
C      46.201349999999991     45.752200000000002     49.982399999999998
C      46.808949999999996     48.024400000000000     50.589799999999997
C      47.078149999999994     45.840800000000002     48.868499999999997
C      47.506850000000000     48.174800000000005     49.292200000000008
C      47.527649999999994     47.091499999999996     48.387000000000000
C      48.456049999999991     49.544399999999996     47.344300000000004
C      48.956750000000000     48.342699999999994     46.860399999999998
C      46.605149999999995     51.696200000000005     51.493600000000001
C      46.705349999999996     52.913200000000003     50.766000000000005
C      47.679449999999989     52.974000000000004     49.776499999999999
C      47.957549999999998     51.759399999999999     49.161200000000008
C      48.718750000000000     51.760599999999997     47.824100000000001
C      48.863649999999993     50.885499999999993     46.837500000000006
C      47.608549999999994     43.211900000000000     46.321899999999999
C      48.890649999999994     43.293000000000006     44.438400000000001
C      49.608449999999991     44.387600000000006     44.681799999999996
C      49.520949999999985     45.441800000000001     45.660799999999995
C      47.486949999999993     42.869399999999999     44.920299999999997
H      46.325850000000003     48.929100000000005     52.450199999999995
H      46.588449999999995     43.805999999999997     48.564700000000002
H      45.422849999999997     46.786500000000004     51.762200000000007
H      45.817049999999995     44.876000000000005     50.147300000000001
H      49.643649999999994     48.214799999999997     46.029799999999994
H      45.919649999999990     51.699299999999994     52.407899999999998
H      48.065749999999994     54.002799999999993     49.225400000000008
H      49.011749999999992     52.762400000000000     47.518100000000004
H      49.564349999999990     51.125100000000003     46.051800000000000
H      47.097849999999994     42.672499999999999     47.170299999999997
H      49.712349999999986     42.841499999999996     43.549800000000005
H      50.577150000000003     44.240600000000001     44.154899999999998
H      50.426549999999992     46.099400000000003     45.497100000000003
H      46.951049999999995     41.997200000000007     44.458399999999997
O      45.914949999999990     53.851600000000005     50.659599999999998
