5

C      47.879949999999994     48.253749999999997     48.056500000000000
H      47.172150000000002     48.814050000000002     48.848100000000002
H      47.071150000000003     48.151650000000004     47.151899999999998
H      48.928849999999997     48.880649999999996     48.119799999999998
H      47.847349999999992     47.119350000000004     48.200699999999998
