55

C      47.105049999999991     43.895099999999999     49.985404999999986
C      48.970450000000000     46.762600000000006     47.948934999999992
C      49.498550000000009     47.722399999999993     46.978494999999995
C      44.989050000000006     49.728999999999999     48.024225000000001
C      45.569450000000003     50.691599999999994     47.002195000000000
C      47.522750000000002     47.043999999999997     48.143344999999997
C      48.595850000000013     48.642899999999997     46.184944999999999
C      45.421350000000004     48.268000000000001     48.188564999999997
C      46.848350000000011     50.443100000000001     46.362804999999994
C      46.733950000000007     48.172100000000000     47.705114999999992
C      47.328850000000003     49.162900000000008     46.766874999999999
C      49.740949999999998     45.810500000000005     48.750444999999999
C      51.127250000000018     45.934799999999996     48.644634999999994
C      51.625050000000002     47.140000000000001     47.983255000000000
C      50.960250000000016     47.886499999999998     47.061115000000001
C      43.732350000000011     50.119500000000002     48.469374999999999
C      43.853750000000005     52.161500000000004     47.710084999999992
C      44.957050000000010     51.990200000000002     46.959064999999995
C      49.141350000000003     44.742999999999995     49.549454999999995
C      50.227650000000011     44.085700000000003     50.421594999999996
C      51.647450000000006     43.980400000000003     49.935855000000004
C      52.070149999999998     44.835399999999993     48.990134999999995
C      47.737950000000012     44.806899999999999     49.452815000000001
C      46.995550000000009     45.761399999999995     48.723204999999993
C      45.568449999999999     45.820099999999996     48.543944999999994
C      44.842650000000006     47.029800000000009     48.621115000000003
C      47.904049999999998     48.207799999999992     44.843535000000003
C      47.492450000000005     46.921700000000001     44.595474999999993
C      51.720550000000017     49.095799999999997     46.695594999999997
C      43.689550000000011     46.877700000000004     49.018084999999999
C      47.737650000000002     51.376099999999994     45.560074999999998
C      50.070150000000012     43.592399999999998     51.706445000000002
H      50.851950000000002     43.769500000000008     52.488745000000009
H      47.739650000000012     43.569199999999995     50.645854999999997
H      51.675350000000009     49.643000000000001     47.710295000000002
H      52.698049999999995     47.239300000000000     48.012884999999997
H      43.400649999999999     49.391000000000005     49.265924999999996
H      43.254850000000005     53.040599999999998     47.668435000000002
H      45.212350000000001     52.842599999999990     46.215964999999997
H      52.272350000000003     43.139600000000002     49.913794999999993
H      52.903949999999995     44.561899999999994     48.155905000000004
H      45.143850000000000     44.891400000000004     48.144795000000002
H      47.787950000000009     48.662700000000001     43.801874999999995
H      47.660049999999998     46.140099999999990     45.278854999999993
H      47.735350000000011     46.834699999999998     43.511254999999991
H      51.275150000000011     49.683900000000008     45.886775000000000
H      52.795250000000010     48.847000000000008     46.380944999999997
H      43.096050000000005     47.068899999999999     47.954084999999992
H      43.369950000000003     47.405900000000003     49.845204999999993
H      47.247150000000005     52.444000000000003     45.575734999999995
H      47.686850000000007     51.015199999999993     44.278194999999997
H      48.778150000000011     50.990699999999990     45.922484999999995
H      49.037050000000008     43.555800000000005     52.095545000000001
H      46.867850000000004     42.959400000000002     49.416714999999996
N      43.137050000000002     51.260199999999998     48.315764999999999
