7

C      48.012399999999992     48.480654999999992     48.538100000000000
C      47.695200000000000     47.295524999999998     47.955200000000005
H      49.350499999999997     49.492075000000000     47.534099999999995
H      47.079700000000003     48.979624999999999     48.537999999999997
H      46.649500000000003     47.008225000000003     47.461900000000000
H      48.507100000000008     46.507925000000000     48.126900000000006
O      49.212100000000007     49.245095000000006     48.403599999999997
