50

C      47.786149999999992     48.890314999999987     47.423634999999997
C      46.721250000000005     48.784615000000002     46.616635000000002
C      45.175750000000001     43.819834999999998     51.489035000000001
C      47.909349999999996     48.289815000000004     48.771435000000004
C      45.579749999999997     48.038415000000001     47.118835000000004
C      46.275150000000004     44.658815000000004     51.739435000000000
C      44.143650000000001     44.496814999999998     50.713335000000001
C      47.110849999999992     46.643715000000000     50.362634999999997
C      44.930649999999993     46.275315000000006     48.802135000000000
C      47.041850000000004     47.494115000000008     49.227135000000004
C      45.785750000000000     47.314515000000000     48.336435000000009
C      46.070349999999998     45.852215000000001     50.872034999999997
C      44.844450000000002     45.662914999999998     50.065835000000007
C      49.052749999999996     49.590815000000006     47.048635000000004
C      48.835149999999992     50.465815000000006     45.931535000000004
C      47.726350000000004     50.537315000000007     45.008135000000003
C      46.584949999999999     49.596215000000001     45.280435000000004
C      50.420049999999996     49.130515000000003     47.313535000000002
C      51.548449999999995     49.371115000000003     46.435635000000005
C      51.431049999999992     50.344814999999997     45.405135000000001
C      50.053549999999994     50.932015000000007     45.301434999999998
C      50.487050000000004     48.612215000000006     48.626235000000001
C      49.281349999999996     48.207615000000004     49.211635000000001
C      49.428149999999995     47.744415000000004     50.656435000000002
C      48.334849999999996     46.881315000000001     51.148634999999999
C      47.366650000000000     51.643415000000005     44.098335000000006
C      46.191849999999995     51.481414999999998     43.524885000000005
C      45.291450000000005     50.308414999999997     43.294685000000001
C      45.440149999999996     49.348915000000005     44.514835000000005
C      44.392050000000005     47.780715000000001     46.267935000000001
C      44.555150000000005     48.343014999999994     44.905635000000004
C      48.359349999999999     45.903615000000002     52.271735000000007
C      47.355150000000002     44.950015000000008     52.678435000000007
H      45.084749999999993     42.890084999999999     51.827835000000007
H      43.222050000000003     44.838314999999994     50.156734999999998
H      44.231649999999995     45.974914999999996     48.058734999999999
H      52.423250000000003     50.564315000000008     44.949735000000004
H      49.832550000000005     51.657215000000008     44.603735000000000
H      51.590349999999994     48.418615000000003     48.811835000000002
H      50.389350000000000     48.102415000000008     51.114635000000007
H      46.204349999999998     52.349215000000001     42.935955000000000
H      43.421950000000002     47.474815000000007     46.755735000000001
H      49.387250000000002     46.077015000000003     52.562435000000001
H      47.576149999999991     43.944535000000002     53.361035000000001
H      48.511149999999994     53.109915000000001     44.997135000000000
H      52.777949999999997     48.304214999999999     47.511234999999999
H      43.712550000000000     48.099315000000004     44.127135000000003
O      48.201249999999995     52.921615000000003     44.188635000000005
O      52.700550000000000     48.714515000000006     46.569434999999999
O      44.329950000000004     50.354815000000002     42.638964999999999
