18

C      47.405199999999994     47.638999999999996     48.639549999999993
C      48.552700000000002     48.187599999999996     47.686350000000004
C      47.575900000000004     46.372300000000003     49.205250000000007
C      49.509100000000004     47.421900000000001     47.032750000000007
C      46.194699999999997     48.365100000000005     48.532550000000001
C      48.560299999999998     49.621900000000004     47.499250000000004
C      48.819200000000009     45.707100000000004     48.724550000000008
C      49.787999999999997     46.333800000000004     48.001350000000002
C      46.165199999999999     49.631500000000003     47.803650000000005
C      47.323200000000000     50.372400000000006     47.410250000000005
H      46.897599999999997     45.920400000000001     49.781949999999995
H      50.202200000000005     47.683500000000002     46.218050000000005
H      45.383300000000006     48.053100000000001     49.070149999999998
H      49.577700000000007     50.048300000000005     47.300849999999997
H      48.924100000000010     44.542700000000004     49.102350000000001
H      50.721299999999999     45.979700000000001     47.984849999999994
H      45.278700000000001     49.873500000000000     47.613950000000003
H      47.343600000000009     51.457299999999996     47.033850000000001
