5

C      48.090599999999995     48.026949999999992     47.668644999999998
H      48.777699999999996     48.801450000000003     47.218114999999997
H      48.965800000000002     47.198549999999997     47.584294999999997
H      47.034199999999998     47.438549999999999     47.689155000000000
H      48.153399999999991     48.087949999999999     48.781885000000003
