18

C      48.804399999999987     48.879899999999992     48.132255000000001
C      47.516300000000001     48.311700000000002     48.656774999999996
C      48.597200000000001     49.533500000000004     46.911245000000008
C      46.418399999999991     49.259699999999995     48.799594999999997
C      49.860100000000003     47.954700000000003     48.551905000000005
C      47.450999999999993     47.162399999999991     49.449834999999993
C      47.379300000000001     50.210899999999995     46.836984999999999
C      46.248099999999994     50.094399999999993     47.831434999999999
C      49.577599999999990     46.647700000000000     49.182765000000003
C      48.327199999999991     46.227199999999996     49.857474999999994
H      49.107999999999990     49.390299999999996     45.916575000000009
H      45.620699999999999     49.029199999999989     49.377915000000002
H      50.793400000000005     47.815200000000004     48.399394999999998
H      46.222899999999996     47.052700000000002     49.787594999999996
H      47.054499999999990     50.686999999999998     45.940325000000001
H      45.206599999999995     50.491899999999987     47.574285000000003
H      50.346199999999996     45.767899999999997     49.024294999999995
H      47.834299999999999     45.313000000000002     50.083424999999991
