5

C      48.011499999999998     48.263899999999992     47.881949999999989
H      47.077599999999997     48.845700000000001     48.101850000000006
H      47.551200000000001     47.154299999999999     48.035850000000003
H      48.922400000000003     48.572300000000006     47.206449999999997
H      48.611100000000000     48.328399999999995     48.793550000000003
