46

C      47.369674999999994     49.442649999999986     49.175579999999997
C      47.301675000000003     50.134949999999996     47.817390000000003
C      49.274236000000002     45.327049999999993     45.303239999999995
C      48.473675000000000     46.486949999999993     44.828340000000004
C      47.727674999999991     48.047149999999995     49.350190000000005
C      47.160474999999991     49.337149999999994     46.607190000000003
C      49.945515000000000     44.577349999999996     44.202840000000002
C      48.132774999999995     47.122849999999993     45.997744000000004
C      47.202775000000003     47.192749999999997     48.218090000000004
C      47.484674999999996     47.948449999999994     46.951160000000002
C      47.290774999999996     50.189249999999994     50.383460000000007
C      46.939174999999992     51.581249999999990     50.465299999999992
C      46.746974999999992     52.252249999999997     49.334940000000003
C      46.746375000000000     51.452949999999994     48.080940000000005
C      48.271675000000002     47.400949999999995     50.457960000000007
C      48.318375000000003     48.239349999999995     51.740760000000002
C      47.810974999999999     49.463349999999984     51.523569999999999
C      48.427975000000004     44.159649999999992     46.111840000000001
C      46.999775000000000     43.726549999999996     46.084257000000001
C      46.149675000000002     44.635849999999991     45.438260800000002
C      46.308674999999994     52.206649999999989     46.847970000000004
C      47.079374999999999     46.018249999999995     48.150710000000004
C      46.502875000000003     49.652349999999991     45.295439999999992
H      47.184674999999999     45.304349999999992     48.933940000000000
H      50.722625000000008     43.523549999999993     44.157040000000016
H      48.487674999999996     46.982249999999993     43.734539999999996
H      46.382575000000003     53.356349999999992     49.093510000000002
H      48.532079699999997     46.205449999999992     50.474129999999995
H      48.685551000000004     47.982549999999996     52.715560000000004
H      47.736575000000002     50.075149999999994     52.445100000000004
H      46.883474999999990     42.637949999999996     46.435680000000005
H      49.987465000000014     45.852649999999997     45.980986000000001
H      45.277374999999992     44.160049999999991     45.719175000000000
H      46.354574999999997     45.332449999999994     44.712439999999994
H      50.689705000000004     45.469549999999991     43.439140000000016
H      45.345374999999990     52.645949999999992     46.697859999999999
H      46.490574999999993     51.661749999999991     45.760781999999999
H      46.892875000000004     53.362050000000004     46.764600000000002
H      46.156874999999999     45.641949999999994     47.517720000000004
H      49.203228000000003     44.458249999999992     43.284439999999996
H      47.380875000000003     49.512049999999995     44.300640000000008
H      45.702275000000000     50.443649999999991     45.262239999999998
H      45.841374999999999     48.914849999999994     44.943639999999995
H      46.020274999999998     52.933149999999991     51.535029999999999
O      48.918146000000007     43.545049999999996     47.026400000000002
O      46.438874999999996     52.056249999999984     51.576670000000000
