6

C      48.673249999999989     48.103398999999989     47.155949999999990
C      47.427149999999997     48.354359000000002     47.779850000000003
H      49.084549999999993     47.248790999999997     47.155449999999995
H      49.542349999999999     48.751209000000003     47.480849999999997
H      47.381550000000004     48.652378999999996     48.844550000000005
H      46.457650000000001     48.679608999999999     47.217949999999995
