14

C      49.237649999999995     46.768149999999991     48.887724999999989
C      47.830050000000000     47.397849999999998     48.446084999999997
C      48.116450000000000     48.801749999999998     47.853665000000007
C      46.875150000000005     49.393650000000001     47.272815000000008
H      49.964449999999999     46.734450000000002     48.002375000000001
H      49.046850000000006     45.868050000000004     49.534464999999997
H      49.673950000000005     47.473549999999996     49.723855000000000
H      47.654949999999999     46.943850000000005     47.491775000000004
H      47.153949999999995     47.633250000000004     49.198655000000002
H      48.789050000000003     49.531849999999999     48.190555000000003
H      48.755150000000000     48.450550000000000     47.021095000000003
H      46.681849999999997     50.131949999999996     48.006195000000005
H      47.126050000000006     49.971249999999991     46.276145000000000
H      46.035550000000001     48.662450000000000     47.173195000000007
