6

C      48.766099999999994     48.420799999999993     48.101799999999990
C      47.469400000000000     48.074400000000004     48.082700000000003
H      49.221899999999998     48.506300000000003     48.885800000000003
H      49.307700000000004     48.136400000000002     47.114199999999997
H      46.692299999999996     48.674700000000001     48.596199999999996
H      47.162700000000008     47.325299999999999     47.455199999999991
