18

C      48.564549999999990     47.760899999999992     48.627299999999991
C      47.743549999999999     47.914600000000007     47.475299999999997
C      48.849249999999998     46.462400000000002     49.261599999999994
C      47.207849999999993     46.714200000000005     46.857000000000006
C      49.106349999999992     48.833600000000004     49.368400000000001
C      46.961249999999993     49.174999999999997     47.532500000000006
C      48.005549999999999     45.570999999999998     49.036800000000007
C      46.917850000000001     45.848399999999998     48.024000000000008
C      48.382549999999995     50.044200000000004     49.285699999999999
C      47.306149999999995     50.310600000000008     48.421600000000005
H      49.321449999999999     46.489600000000010     50.255800000000001
H      47.195349999999998     46.516300000000001     45.744199999999999
H      49.977050000000006     48.636000000000010     49.914800000000007
H      46.022949999999994     49.049000000000007     46.789800000000007
H      47.671549999999996     44.909999999999997     49.817699999999995
H      46.074749999999995     45.273700000000005     48.212300000000006
H      48.847249999999988     50.672499999999999     50.009899999999995
H      46.859249999999996     51.090000000000003     48.394299999999994
