18

C      48.490449999999996     47.735449999999993     48.222814999999990
C      47.326849999999993     47.859250000000003     47.352384999999998
C      49.647549999999995     48.533649999999994     48.182375000000000
C      47.199849999999998     48.988249999999994     46.355125000000001
C      48.866349999999997     46.725250000000003     49.140774999999991
C      46.510149999999996     46.692250000000001     47.574554999999997
C      49.350650000000002     49.771450000000002     47.525435000000002
C      48.168049999999994     50.068950000000001     46.650894999999998
C      48.165250000000000     45.493849999999995     49.119815000000003
C      46.953850000000003     45.600549999999998     48.364204999999998
H      50.508650000000003     48.240549999999999     48.900275000000008
H      46.154650000000004     48.895949999999999     46.175094999999999
H      49.662449999999993     46.973150000000004     49.720694999999999
H      45.491349999999997     46.955849999999998     47.437154999999997
H      49.933949999999996     50.605450000000005     47.859965000000003
H      48.096549999999993     51.292050000000003     46.733624999999996
H      48.410249999999991     44.707949999999997     49.824905000000001
H      46.057050000000004     45.031149999999997     48.643844999999999
