6

C      47.485749999999996     47.851649999999999     48.258849999999995
C      48.674650000000000     48.216250000000002     47.511550000000000
H      46.452349999999996     47.607350000000011     47.820250000000001
H      47.181150000000002     47.167850000000001     49.469449999999995
H      49.547650000000004     48.832149999999999     47.943049999999999
H      48.661850000000001     47.798950000000005     46.530550000000005
