18

C      48.111249999999991     47.418499999999995     48.451099999999997
C      48.333449999999999     48.578600000000002     47.680199999999999
C      47.994850000000000     46.188000000000002     47.570200000000000
C      48.772049999999993     48.515300000000003     46.227800000000002
C      47.721449999999997     47.389500000000005     49.867999999999995
C      48.382849999999998     49.865100000000005     48.435000000000002
C      48.192149999999998     45.964599999999997     46.197699999999998
C      48.446550000000002     47.320900000000002     45.633200000000002
C      47.921849999999992     48.607300000000002     50.426199999999994
C      48.187449999999998     49.868600000000008     49.773799999999994
H      48.867949999999993     49.419900000000005     45.438199999999995
H      47.100149999999999     45.582900000000002     47.959100000000007
H      48.235649999999993     50.713400000000000     50.325500000000005
H      47.597049999999996     46.242300000000000     50.180499999999995
H      48.899850000000001     50.800199999999997     48.182800000000000
H      47.605049999999999     45.199800000000003     45.689099999999996
H      48.272750000000002     47.334700000000005     44.580100000000002
H      47.914049999999996     48.631200000000000     51.419899999999998
