18

C      48.499299999999991     48.046349999999990     47.203599999999994
C      47.828399999999995     48.094349999999999     48.538719999999998
C      47.965499999999999     47.020050000000005     46.372250000000008
C      46.777700000000003     47.143050000000009     48.806579999999997
C      49.472400000000000     49.024450000000009     46.993859999999998
C      48.280700000000003     48.995250000000006     49.506970000000010
C      46.858100000000000     46.126550000000002     46.598630000000000
C      46.179600000000001     46.183050000000001     47.924340000000015
C      49.769500000000001     50.142850000000003     47.901809999999998
C      49.225199999999994     49.942250000000008     49.163989999999998
H      46.653399999999998     45.066449999999996     46.121170000000006
H      48.549999999999997     46.478150000000007     45.547089999999997
H      46.171799999999998     47.444250000000004     49.695620000000005
H      49.926099999999998     48.762450000000008     46.129829999999998
H      47.760299999999994     48.824450000000006     50.452910000000003
H      45.442799999999998     45.267649999999996     48.059300000000007
H      50.557200000000002     50.933550000000004     47.588080000000005
H      49.139400000000002     50.881149999999998     49.908610000000010
