18

C      47.598599999999983     47.404999999999987     48.771299999999989
C      47.989099999999993     48.088500000000003     47.560900000000004
C      46.166599999999988     47.652700000000003     49.044899999999998
C      46.992499999999993     48.470099999999995     46.574100000000001
C      48.611599999999996     47.047899999999991     49.756799999999998
C      49.436599999999999     48.179099999999998     47.231800000000007
C      45.443500000000000     48.863099999999996     48.506200000000007
C      45.802299999999988     48.971799999999995     47.054600000000008
C      49.976599999999991     47.183999999999990     49.489699999999999
C      50.296599999999998     47.585199999999993     48.211799999999997
H      45.326599999999999     47.048699999999990     48.960400000000007
H      47.235899999999987     48.677799999999998     45.383600000000001
H      48.609099999999998     46.532699999999998     50.616399999999999
H      49.805399999999992     48.784299999999995     46.387700000000009
H      44.617300000000000     49.467300000000002     48.782700000000006
H      44.686299999999989     49.319600000000001     46.747799999999998
H      50.772799999999989     46.621800000000000     50.031000000000006
H      51.382700000000000     47.226499999999994     47.832900000000009
