18

C      47.284949999999995     47.729799999999997     48.380549999999992
C      48.503450000000001     48.273099999999999     47.757249999999999
C      47.004049999999992     46.329999999999998     48.508150000000001
C      49.634649999999993     47.331800000000001     47.616949999999989
C      46.395550000000000     48.744599999999991     48.896349999999998
C      48.603849999999994     49.701499999999996     47.455349999999996
C      48.012649999999994     45.393199999999993     48.530549999999991
C      49.172449999999998     46.002700000000004     47.888549999999995
C      46.608549999999994     50.132999999999996     48.741649999999993
C      47.713049999999996     50.608699999999999     47.884450000000001
H      46.110849999999999     45.877700000000004     48.859049999999996
H      50.636550000000000     47.486099999999993     46.937449999999998
H      45.363450000000000     48.534400000000005     49.060949999999991
H      49.271249999999995     50.424199999999985     46.876249999999999
H      48.009149999999991     44.379300000000001     48.865349999999992
H      49.755449999999996     45.074799999999996     47.595950000000002
H      45.834249999999997     50.805699999999987     49.123750000000001
H      47.655949999999990     51.620699999999999     47.590449999999990
