44

C      50.221451000000002     49.624449999999996     47.519699999999986
C      49.259670999999997     48.645050000000005     47.370599999999989
C      47.077751000000006     46.358850000000004     49.778199999999991
C      48.019390999999999     46.102650000000004     50.788300000000000
C      50.699840999999992     49.989850000000004     48.874899999999990
C      48.622871000000004     48.041250000000005     48.659299999999995
C      47.359290999999999     47.487250000000003     48.661399999999993
C      49.281631000000004     46.829750000000004     50.762099999999997
C      50.545071000000007     48.842550000000003     49.753599999999999
C      49.592531000000008     47.841750000000005     49.701699999999995
C      50.846660999999997     50.263450000000006     46.335999999999991
C      50.408760999999998     49.587250000000004     45.248299999999993
C      49.287430999999998     48.701450000000001     45.116699999999987
C      48.686021000000011     48.123150000000003     46.215399999999995
C      45.758001000000007     45.814450000000001     49.638299999999994
C      45.434081000000006     44.981350000000006     50.734599999999993
C      46.469551000000010     44.341050000000003     51.484099999999991
C      47.779031000000003     44.841350000000006     51.525999999999989
C      51.627870999999999     51.470349999999996     46.443899999999992
C      52.100301000000002     51.792250000000017     45.169599999999996
C      51.999521000000001     50.829249999999995     44.048899999999996
C      50.886060999999998     50.034950000000002     43.823899999999988
C      48.931321000000011     44.288850000000004     52.315099999999994
C      44.242091000000002     44.022950000000002     50.787199999999991
C      50.990240999999997     51.266450000000006     49.427499999999988
H      46.591911000000010     47.292149999999999     47.787499999999987
H      51.102800999999999     48.913850000000004     50.645099999999992
H      44.427731000000009     46.914550000000006     47.936799999999998
H      50.107021000000003     46.775450000000006     51.476599999999998
H      48.188211000000010     47.227550000000001     46.265699999999988
H      49.446071000000003     48.095150000000004     44.236100000000000
H      46.183491000000004     43.523650000000004     52.102499999999999
H      51.956121000000010     52.130149999999993     47.421499999999988
H      52.491431000000006     51.339750000000009     43.151699999999998
H      50.259050999999999     49.675250000000005     42.861100000000000
H      48.997230999999999     43.366350000000004     53.138900000000000
H      43.363779000000008     44.162950000000002     50.148899999999990
H      44.581361000000001     43.118150000000000     50.495100000000001
H      51.057731000000004     51.354950000000002     50.384599999999999
H      51.066291000000007     52.124150000000000     48.597099999999990
H      44.022921000000011     43.791350000000001     51.833499999999994
H      52.636220999999992     52.881850000000000     45.452499999999993
O      50.127921000000001     44.251150000000003     52.056099999999994
S      44.118621000000005     46.115250000000003     48.874299999999998
