18

C      48.452699999999993     48.470049999999993     47.927399999999992
C      47.531999999999996     47.332449999999994     48.071300000000001
C      49.920900000000003     48.276650000000004     48.188099999999999
C      48.196399999999997     46.082549999999998     48.752699999999997
C      47.688299999999998     49.662149999999997     47.746200000000002
C      46.178600000000003     47.457549999999998     48.046600000000005
C      50.388000000000005     47.094349999999999     48.470700000000001
C      49.529600000000002     46.014949999999999     48.730800000000002
C      46.337800000000001     49.863550000000004     47.296099999999996
C      45.573999999999998     48.676150000000000     47.513300000000001
H      50.391000000000005     49.208950000000002     47.978099999999998
H      47.508899999999997     45.274450000000002     49.053699999999999
H      48.150000000000006     50.871150000000000     47.778100000000002
H      45.511099999999999     46.525350000000003     48.310800000000000
H      51.628000000000000     46.917950000000005     48.443999999999996
H      50.091999999999999     45.128850000000000     48.833199999999998
H      45.463999999999999     50.636350000000007     46.946300000000001
H      44.372000000000000     48.573750000000004     47.628000000000000
