18

C      48.579799999999992     47.693499999999993     48.394499999999994
C      47.234800000000000     48.156800000000004     47.906900000000000
C      49.756099999999996     48.571700000000007     47.976100000000002
C      47.234999999999999     49.162700000000001     46.823000000000000
C      48.550000000000004     47.154399999999995     49.622700000000002
C      46.080700000000000     47.357600000000005     48.042900000000003
C      49.576599999999992     49.515500000000003     46.875500000000002
C      48.425199999999997     49.826000000000008     46.270200000000003
C      47.457900000000002     46.182100000000005     49.649900000000002
C      46.191600000000001     46.459900000000005     49.090700000000005
H      50.811399999999999     48.247900000000001     48.240300000000005
H      46.206600000000002     49.192800000000005     46.601900000000001
H      49.581699999999991     47.101700000000008     50.084200000000003
H      45.188600000000001     47.773200000000003     47.619600000000005
H      50.376300000000008     50.035600000000002     46.470500000000001
H      48.110300000000002     50.737499999999997     45.614600000000003
H      47.052799999999998     45.262500000000003     50.385399999999997
H      45.219100000000005     45.827799999999996     49.314299999999996
