18

C      47.739849999999990     47.235849999999992     48.283600000000000
C      48.140850000000000     48.515449999999994     47.582099999999997
C      46.717249999999993     47.357450000000000     49.299300000000002
C      47.452449999999999     49.754249999999999     48.105800000000002
C      47.924049999999994     46.022149999999996     47.622600000000006
C      49.038849999999996     48.487750000000005     46.587299999999999
C      46.409649999999999     48.595650000000006     49.844099999999997
C      46.598249999999993     49.905249999999995     49.215199999999996
C      48.804550000000006     46.100949999999997     46.529200000000003
C      49.536749999999998     47.173749999999998     46.103999999999999
H      46.302449999999993     46.606749999999998     50.028000000000006
H      47.522149999999996     50.605750000000000     47.510800000000003
H      47.741950000000003     45.074050000000000     47.813900000000004
H      49.215950000000007     49.593750000000000     46.246700000000004
H      45.720749999999995     48.578049999999990     50.726399999999998
H      46.257450000000006     50.925950000000000     49.746200000000002
H      48.767849999999996     45.082049999999995     46.150800000000004
H      50.279250000000005     47.193349999999995     45.273600000000002
