51

C      46.461649999999999     47.134299999999989     47.716149999999999
C      46.973050000000001     48.412900000000000     48.146850000000001
C      50.827650000000006     46.684399999999997     47.028050000000007
C      47.168850000000006     46.345599999999997     46.732650000000007
C      48.077850000000005     49.144700000000000     47.526150000000001
C      49.733850000000004     46.032699999999998     46.306049999999999
C      50.487549999999999     48.031700000000001     47.285750000000007
C      48.616849999999999     46.790399999999998     46.650950000000009
C      49.054950000000005     48.070000000000000     47.006250000000009
C      45.770150000000001     46.273999999999994     48.689750000000004
C      45.884850000000000     46.631699999999995     50.058849999999993
C      46.257150000000003     48.109800000000000     50.387050000000002
C      46.612350000000006     49.109099999999998     49.339050000000000
C      45.416450000000005     44.904799999999994     48.359849999999994
C      45.481550000000006     44.159099999999995     49.631650000000008
C      44.994150000000005     44.595700000000001     50.882350000000002
C      45.490350000000007     45.896999999999998     51.093550000000008
C      45.598350000000003     44.584099999999999     47.000349999999997
C      46.507850000000005     45.239799999999995     46.065350000000009
C      45.979950000000002     48.561899999999994     51.711250000000007
C      45.733950000000000     49.894700000000000     51.800850000000011
C      45.896550000000005     50.853600000000000     50.761250000000004
C      46.696950000000001     50.475199999999994     49.633450000000011
C      47.513750000000002     51.212999999999994     48.651650000000004
C      48.424049999999994     50.513199999999998     47.712249999999997
C      45.879550000000002     45.266399999999997     44.703150000000008
C      49.941950000000006     44.747699999999995     45.535550000000001
C      44.843850000000003     45.830900000000000     44.450250000000011
C      45.895050000000005     52.332599999999999     51.173549999999992
C      46.650050000000007     44.575799999999994     43.601950000000002
H      51.939549999999997     46.537799999999997     46.902850000000001
H      51.210250000000002     48.999299999999991     47.750850000000000
H      46.023450000000004     43.256000000000000     49.209650000000011
H      44.843750000000000     43.830500000000001     51.651750000000007
H      45.748350000000002     46.196399999999997     52.183650000000000
H      45.179050000000004     43.601199999999999     46.622950000000003
H      45.628750000000004     50.132800000000003     52.883850000000010
H      46.798650000000002     52.744000000000000     50.736150000000009
H      47.611149999999995     52.356999999999999     48.593150000000009
H      49.205350000000003     50.866699999999994     46.980450000000005
H      50.879850000000005     44.619699999999995     44.937650000000005
H      49.727050000000006     45.177499999999995     44.263550000000009
H      44.060450000000003     46.481400000000001     44.275750000000002
H      45.621150000000000     47.901399999999995     53.505849999999995
H      45.058750000000003     52.661299999999997     50.460549999999998
H      45.894750000000002     52.432199999999995     52.176950000000005
H      46.368850000000002     44.565799999999996     42.494150000000005
H      47.252050000000004     43.604199999999999     44.049750000000003
H      47.453650000000003     45.186999999999998     43.297650000000004
H      49.494050000000001     43.829499999999996     45.825150000000008
O      46.242850000000004     47.785499999999999     52.846750000000000
