22

C      49.099249999999998     51.062500000000000     48.216949999999997
C      49.000070000000008     49.761499999999998     48.628850000000000
C      47.432870000000008     46.466400000000007     47.733549999999994
C      48.112589999999997     47.486000000000004     48.517649999999989
C      46.842560000000006     45.244500000000002     48.357649999999992
C      48.570080000000004     46.988200000000006     49.777249999999995
C      47.388350000000003     46.486999999999995     46.297749999999994
C      48.649829999999994     48.588600000000000     47.725949999999997
C      47.204740000000001     45.001400000000004     49.720649999999992
C      48.053060000000002     45.788700000000006     50.417450000000002
C      48.347449999999995     47.389700000000005     45.671549999999996
C      48.958619999999996     48.552599999999998     46.452950000000001
H      49.288539999999998     51.968699999999998     48.856049999999996
H      48.783020000000008     49.661299999999997     49.817449999999994
H      46.446740000000005     44.698300000000003     47.555449999999993
H      48.867480000000000     47.574100000000001     50.523849999999996
H      46.572600000000008     45.907799999999995     45.696849999999998
H      48.570700000000002     51.428200000000004     47.203450000000004
H      46.914349999999999     44.031300000000002     50.037449999999993
H      48.378420000000006     45.481300000000005     51.527249999999995
H      48.080659999999995     47.194199999999995     44.472750000000005
H      49.553259999999995     49.316900000000004     45.824150000000003
