18

C      47.814999999999991     47.303749999999994     47.224949999999993
C      48.075800000000001     48.364749999999994     48.182449999999996
C      49.120900000000006     46.912050000000001     46.434750000000001
C      49.287400000000005     49.315049999999992     48.237349999999999
C      46.601500000000001     46.511949999999999     47.206849999999996
C      47.192099999999996     48.541650000000011     49.287349999999996
C      50.210200000000000     47.739349999999995     46.697949999999999
C      50.379000000000005     48.876850000000012     47.546650000000000
C      45.775599999999997     46.844050000000003     48.345450000000000
C      46.169799999999995     47.580649999999999     49.420150000000000
H      47.452200000000005     49.319350000000000     49.905949999999997
H      49.501999999999995     46.333250000000000     45.640949999999997
H      49.090800000000002     50.265850000000000     48.776649999999997
H      46.319999999999993     45.734150000000000     46.500750000000004
H      51.200199999999995     47.581850000000003     45.972949999999997
H      51.157700000000006     49.624549999999992     47.367250000000006
H      44.799800000000005     46.379350000000002     48.558950000000003
H      45.537800000000004     47.700150000000001     50.359050000000003
