63

C      43.173449999999995     48.575450000000004     47.167949999999990
C      42.342750000000002     48.789350000000006     48.397449999999999
C      45.937250000000006     45.790450000000000     50.553549999999994
C      44.761049999999997     45.863950000000010     51.421649999999993
C      44.187150000000003     47.584650000000003     47.466349999999998
C      42.319450000000003     48.020850000000003     49.591950000000004
C      45.676749999999998     46.369850000000007     49.245150000000002
C      43.586450000000006     46.697550000000000     51.245849999999997
C      44.448450000000008     46.906150000000004     48.760349999999995
C      43.466350000000006     47.220350000000003     49.838549999999998
C      43.364949999999993     49.463650000000008     46.080849999999998
C      42.528550000000003     50.667650000000002     46.161949999999997
C      41.303050000000006     49.726150000000011     47.955549999999995
C      46.981750000000005     44.886050000000004     50.826450000000001
C      46.806550000000001     43.799050000000001     51.740149999999993
C      46.052150000000005     44.403350000000010     52.835349999999998
C      44.930449999999993     45.276249999999997     52.716450000000002
C      44.581950000000006     49.837150000000001     45.384449999999994
C      44.579050000000002     50.946649999999998     44.294449999999998
C      43.480250000000012     51.888350000000010     44.230049999999999
C      42.704750000000004     51.763950000000001     45.321050000000000
C      45.634450000000001     48.915350000000011     45.786449999999995
C      45.315550000000002     47.735750000000003     46.613750000000003
C      46.321950000000001     46.687450000000005     46.774750000000004
C      46.610550000000003     46.309950000000008     48.066049999999997
C      45.575149999999994     50.597950000000004     43.222749999999998
C      41.266750000000002     48.053649999999998     50.547149999999995
C      51.977750000000000     45.725150000000006     50.700350000000000
C      53.046650000000000     44.715350000000008     50.336549999999995
C      51.863050000000001     46.292350000000006     51.930950000000003
C      54.213250000000002     44.940750000000001     51.073050000000002
C      50.757149999999996     45.747950000000010     49.852349999999994
C      53.501850000000005     44.505650000000010     48.937450000000005
C      53.065150000000003     46.284550000000003     52.743149999999993
C      54.311250000000001     45.771149999999999     52.251849999999997
C      49.509850000000000     45.351649999999999     50.375650000000000
C      54.702650000000006     44.322450000000011     48.354549999999996
H      53.054450000000003     45.030850000000008     48.258949999999999
H      43.371549999999999     47.140350000000005     52.273649999999996
H      40.357550000000003     49.817550000000004     48.498250000000006
H      47.637350000000012     43.298650000000002     52.216349999999998
H      46.007650000000012     44.108049999999999     53.808149999999998
H      44.248250000000013     45.415849999999999     53.589949999999995
H      43.663450000000005     52.701349999999998     43.530250000000002
H      42.044650000000004     52.629750000000008     45.408349999999999
H      46.784150000000004     49.179050000000011     45.678950000000000
H      46.884650000000008     46.232450000000007     45.966649999999994
H      47.653850000000006     45.792549999999999     48.173849999999995
H      46.624449999999996     50.033650000000002     43.558050000000001
H      41.666350000000001     47.990250000000010     51.696849999999998
H      40.845850000000006     49.171450000000000     50.431649999999998
H      51.007250000000013     46.990550000000006     52.282450000000004
H      55.091949999999997     44.218250000000005     50.798150000000000
H      50.693049999999999     46.152350000000006     48.816949999999999
H      54.768850000000000     44.738149999999997     47.255350000000000
H      53.193449999999999     46.653449999999999     53.885950000000001
H      55.370050000000006     45.967450000000007     52.714149999999997
H      49.219050000000003     45.419450000000005     51.523049999999991
H      55.642449999999997     44.020350000000001     48.738049999999994
H      40.527850000000001     47.311349999999997     50.813750000000006
N      41.468050000000005     50.641250000000007     47.082950000000004
O      45.474050000000005     51.049450000000000     42.114049999999999
O      48.004750000000001     45.142850000000003     50.051049999999996
