18

C      48.135799999999996     48.791749999999986     47.736399999999996
C      48.144300000000001     47.319050000000004     47.615299999999998
C      49.254400000000004     49.598450000000000     48.329300000000003
C      49.090600000000002     46.693650000000005     48.383799999999994
C      46.858699999999999     49.427549999999997     47.713000000000001
C      46.888000000000005     46.837850000000003     47.159100000000002
C      50.354600000000005     48.899749999999997     48.805500000000002
C      50.069200000000002     47.506950000000003     48.994799999999998
C      45.530300000000004     49.009249999999994     47.438000000000002
C      45.842000000000006     47.752849999999995     46.805599999999998
H      49.246100000000006     50.530550000000005     48.027999999999992
H      49.346800000000002     45.469449999999995     48.404000000000011
H      46.915100000000002     50.524150000000006     47.575800000000001
H      46.779700000000005     45.673550000000006     46.986499999999999
H      51.410499999999999     49.308049999999994     48.883299999999991
H      50.794499999999999     46.837450000000004     49.694400000000002
H      44.589500000000001     49.320449999999994     47.122700000000002
H      45.102100000000007     47.257249999999999     46.305599999999998
