60

C      41.581189999999992     47.385849999999991     44.410199999999989
C      49.789590000000004     46.052550000000004     47.787799999999997
C      49.202089999999998     46.973449999999993     48.579499999999996
C      42.226160000000007     50.026950000000006     47.564799999999998
C      48.945290000000000     45.472850000000001     46.671399999999998
C      43.392640000000000     49.857350000000004     48.240800000000000
C      47.816789999999997     47.329150000000006     48.323999999999998
C      43.454840000000004     47.103550000000006     45.874100000000006
C      45.128770000000003     48.105650000000004     47.873299999999993
C      43.230909999999994     48.404149999999994     46.460499999999996
C      44.070180000000008     48.897950000000002     47.394900000000000
C      47.618790000000004     46.091850000000001     46.234399999999994
C      44.667820000000006     46.376049999999999     46.100000000000001
C      47.028090000000006     46.835450000000002     47.360999999999997
C      45.528370000000010     46.964949999999995     47.026999999999994
C      47.179389999999998     48.178549999999994     49.353499999999990
C      45.859720000000010     48.732449999999993     48.993599999999994
C      51.151790000000005     45.745449999999998     48.095800000000004
C      51.971390000000000     46.168950000000002     49.244399999999992
C      51.401690000000002     47.222649999999994     50.109899999999989
C      49.958790000000008     47.412550000000003     49.818799999999996
C      49.156289999999998     48.170650000000002     50.766499999999994
C      47.833190000000002     48.565549999999995     50.471299999999999
C      51.813590000000005     44.678750000000001     47.324000000000005
C      53.120990000000006     44.092750000000002     47.622599999999998
C      53.763990000000007     44.536849999999994     48.755599999999994
C      53.309190000000001     45.710349999999998     49.445799999999998
C      49.887990000000002     44.782750000000000     45.884200000000000
C      51.155389999999997     44.297450000000005     46.180099999999989
C      45.367080000000001     49.706449999999997     49.891999999999996
C      44.150760000000005     50.332050000000002     49.479299999999988
C      52.136390000000006     47.232049999999994     51.495999999999995
C      53.666089999999997     47.271849999999993     51.358499999999999
C      54.067590000000010     46.115149999999993     50.559799999999996
C      42.381940000000000     46.412950000000002     45.069299999999991
C      44.042820000000006     51.805649999999993     49.757899999999999
H      47.735790000000009     49.092450000000007     51.434800000000003
H      41.594390000000004     48.405250000000002     45.112400000000001
H      40.854010000000002     47.279350000000001     43.552900000000001
H      41.292460000000005     50.490649999999995     47.974699999999999
H      46.121089999999995     46.646449999999994     44.939699999999995
H      44.759799999999998     45.403749999999995     45.586199999999998
H      49.806690000000003     48.497449999999994     51.581399999999995
H      53.406890000000004     43.222249999999995     47.015400000000000
H      54.668390000000002     44.042849999999994     48.998799999999996
H      51.445090000000008     43.641550000000002     45.497099999999996
H      49.273390000000006     44.277049999999996     45.069199999999988
H      46.095129999999997     50.405350000000006     50.677899999999994
H      43.585840000000005     51.825349999999993     50.684999999999995
H      51.646990000000002     48.105150000000002     51.958199999999998
H      51.633089999999996     46.132550000000002     51.818599999999996
H      53.908190000000005     47.238149999999997     52.447099999999999
H      54.386290000000002     48.173549999999999     51.078799999999994
H      54.119090000000000     45.511950000000006     51.320600000000006
H      55.145989999999998     45.994149999999998     50.359199999999994
H      42.284700000000001     45.404350000000001     44.940300000000001
H      44.622730000000004     52.777750000000005     49.864799999999995
H      43.253439999999998     52.018650000000001     48.930600000000005
N      42.178120000000007     49.148549999999993     46.526400000000002
N      47.154790000000006     45.858550000000001     45.070999999999998
