18

C      47.738264999999998     47.357949999999988     48.678399999999989
C      48.070554999999999     48.146850000000001     47.478299999999990
C      46.306545000000000     47.160550000000001     48.661999999999992
C      47.652805000000001     47.561250000000001     46.187299999999993
C      48.633634999999998     47.556250000000006     49.709299999999999
C      49.293845000000005     48.932150000000007     47.366599999999991
C      45.584395000000001     47.063550000000006     47.477300000000000
C      46.305644999999998     47.114850000000004     46.284699999999994
C      50.001925000000000     48.042749999999998     49.558899999999994
C      50.266024999999999     48.741050000000001     48.361099999999993
H      45.839934999999997     46.843150000000009     45.340199999999996
H      45.819395000000000     46.470349999999996     49.579999999999998
H      48.030754999999999     47.243750000000006     45.254300000000001
H      48.346914999999996     47.300849999999997     50.745699999999999
H      49.534784999999999     49.636250000000004     46.390099999999997
H      44.876775000000009     46.363749999999996     47.454200000000000
H      50.125025000000008     48.775149999999996     50.494899999999994
H      51.123224999999991     49.225549999999998     48.036999999999992
