18

C      47.141949999999994     48.314699999999995     47.643249999999995
C      48.462349999999986     48.390400000000000     48.159550000000003
C      46.287449999999993     47.318200000000004     48.301449999999996
C      48.772350000000003     47.582500000000003     49.464949999999995
C      46.685050000000004     49.011499999999998     46.439649999999993
C      49.528049999999993     49.051200000000001     47.573050000000002
C      46.499449999999996     46.733100000000000     49.502050000000004
C      47.847349999999992     46.849500000000006     50.133450000000003
C      47.947749999999999     49.195700000000002     45.777849999999994
C      49.301649999999995     49.509399999999999     46.329050000000002
H      45.355050000000006     47.321600000000004     47.627549999999992
H      49.941549999999992     47.578800000000001     50.146949999999997
H      45.638049999999993     49.325699999999998     45.872449999999994
H      50.644949999999994     48.995900000000006     48.098449999999993
H      45.773949999999999     46.071500000000000     49.874749999999999
H      47.802549999999997     46.415599999999998     51.218150000000001
H      47.764849999999996     49.388900000000007     44.781849999999999
H      50.207649999999987     49.928500000000000     45.730749999999993
