55

C      47.430399999999992     48.559299999999993     47.361599999999996
C      46.733199999999997     49.140600000000006     48.509300000000003
C      47.364800000000002     49.080200000000005     45.988199999999999
C      46.122600000000006     50.415199999999999     48.454500000000003
C      46.114599999999996     50.590100000000007     44.885500000000000
C      46.221900000000005     49.948000000000008     46.074400000000004
C      45.338899999999995     50.486900000000006     47.222000000000001
C      48.391400000000004     47.469200000000001     47.284399999999998
C      48.344700000000003     46.902500000000003     48.675300000000000
C      47.904499999999999     47.619399999999999     49.917000000000009
C      47.177899999999994     48.766300000000001     49.941799999999994
C      49.187399999999997     47.056300000000007     46.158100000000005
C      50.364300000000000     46.227500000000006     46.565100000000001
C      50.297399999999996     45.516300000000001     47.858799999999995
C      49.286299999999997     45.832700000000003     48.821800000000003
C      49.048900000000003     47.798900000000003     44.901800000000001
C      48.191800000000001     48.872500000000016     44.786100000000005
C      47.899699999999996     46.654300000000006     51.087499999999999
C      47.623300000000000     47.342399999999998     52.286899999999996
C      47.046899999999994     48.608400000000003     52.479599999999998
C      46.655699999999996     49.216400000000007     51.273299999999999
C      49.067600000000013     44.849800000000002     49.880199999999995
C      48.391900000000007     45.230599999999995     51.024200000000000
C      45.666100000000000     50.263999999999996     50.838400000000000
C      45.608500000000006     51.004000000000005     49.711800000000004
C      51.469000000000008     46.014099999999999     45.698000000000000
C      52.560299999999998     45.134399999999999     45.979300000000002
C      52.753699999999995     44.700699999999998     47.360100000000003
C      51.544800000000009     44.825900000000004     48.200399999999995
C      47.882599999999996     49.549700000000001     43.443600000000004
C      52.381299999999996     48.200500000000005     45.448500000000003
C      51.778600000000012     47.222099999999998     44.980400000000003
C      46.591800000000006     50.101700000000008     43.579999999999998
C      43.467399999999998     51.866799999999998     46.627200000000002
H      49.413200000000003     47.621300000000005     43.730499999999999
H      47.958699999999993     46.582599999999999     53.172500000000007
H      46.985699999999994     49.313299999999998     53.394100000000002
H      48.338300000000004     44.852000000000004     51.941600000000001
H      45.070599999999999     50.780000000000001     51.608400000000010
H      45.060400000000001     51.866700000000009     49.554700000000004
H      53.308200000000014     45.153800000000004     45.320399999999999
H      53.605000000000004     44.041499999999999     47.556500000000007
H      51.639099999999999     44.865499999999997     49.309200000000004
H      48.690500000000000     49.729000000000013     42.605899999999998
H      52.353600000000000     48.163100000000000     46.489100000000001
H      53.047500000000014     49.001000000000005     45.062100000000001
H      51.787999999999997     47.055400000000006     43.771799999999999
H      48.580600000000004     43.116299999999995     50.161100000000012
H      45.437600000000003     51.386600000000001     44.757700000000000
H      45.925200000000004     50.286900000000003     42.744500000000002
H      44.180999999999997     52.883700000000005     46.627299999999998
H      42.394999999999996     51.778500000000008     47.089500000000001
H      43.348699999999994     51.486599999999996     45.570399999999999
N      44.255499999999998     51.105500000000006     47.500200000000000
O      49.327500000000001     43.510100000000008     49.590900000000012
