18

C      47.918499999999987     47.615549999999999     48.793899999999994
C      48.278999999999996     48.177849999999999     47.379799999999996
C      46.948999999999998     48.399549999999998     49.471799999999995
C      47.410699999999999     49.050550000000008     46.692000000000000
C      48.695499999999996     46.505249999999997     49.366300000000003
C      49.304899999999996     47.424550000000004     46.794899999999998
C      46.251799999999996     49.398649999999996     48.756599999999999
C      46.650599999999997     49.808550000000004     47.507799999999996
C      49.904499999999999     45.963150000000006     48.744000000000000
C      50.070800000000006     46.386249999999997     47.394799999999996
H      46.356199999999994     48.058450000000001     50.410400000000003
H      47.589199999999998     49.398649999999996     45.589599999999997
H      48.572999999999993     46.679750000000006     50.404799999999994
H      49.410199999999996     47.649250000000002     45.652999999999999
H      45.451499999999996     49.896050000000010     49.201900000000002
H      45.960099999999997     50.671749999999996     47.087699999999998
H      50.473299999999995     45.328250000000004     49.347599999999993
H      50.548500000000004     45.683950000000003     46.651699999999998
