18

C      47.156885000000003     47.495899999999992     48.494000000000000
C      47.535134999999997     48.793099999999995     47.742700000000006
C      47.209194999999994     46.489300000000000     47.502500000000005
C      47.802355000000006     49.050099999999986     46.391700000000007
C      47.215274999999991     47.307800000000000     49.833999999999996
C      48.091675000000009     49.774699999999996     48.798300000000005
C      47.560645000000008     46.641099999999994     46.177500000000002
C      47.564525000000003     47.968699999999998     45.565800000000003
C      47.842695000000006     48.298999999999992     50.725200000000008
C      47.866895000000000     49.711599999999990     50.190099999999994
H      47.126784999999998     45.423699999999997     47.805399999999999
H      48.225104999999999     50.090599999999995     45.877599999999994
H      47.121795000000006     46.338499999999996     50.501799999999996
H      48.878204999999994     50.576300000000003     48.306400000000004
H      47.670974999999999     45.724299999999999     45.592599999999997
H      47.790885000000003     48.080699999999993     44.332000000000001
H      48.417924999999997     48.278299999999987     51.667999999999999
H      47.762524999999997     50.471000000000004     51.074000000000005
