50

C      50.289249999999996     47.894949999999994     47.528649999999985
C      49.486449999999998     47.203350000000000     46.533249999999995
C      46.611449999999998     47.874749999999999     50.580249999999992
C      45.702450000000006     47.778050000000000     49.468249999999998
C      49.866750000000003     48.014749999999999     48.946050000000000
C      48.112550000000006     47.107450000000000     46.617149999999995
C      47.977049999999998     47.752650000000003     50.284450000000007
C      46.076249999999995     47.528449999999999     48.080050000000000
C      48.557150000000000     47.654750000000000     48.961950000000002
C      47.442249999999994     47.476849999999999     47.931449999999998
C      51.756049999999995     47.963950000000004     47.733850000000004
C      52.543450000000000     47.485050000000001     46.695650000000001
C      51.790950000000002     46.744650000000000     45.638949999999994
C      50.444350000000007     46.954850000000000     45.309349999999995
C      46.016349999999996     48.427550000000004     51.873449999999991
C      44.654649999999997     48.502050000000004     52.062449999999998
C      43.687450000000005     48.089049999999993     51.036950000000004
C      44.313350000000007     47.967449999999999     49.724849999999989
C      50.923350000000006     48.533149999999999     49.764449999999997
C      52.225349999999999     48.473049999999994     49.061949999999996
C      47.122450000000008     46.794850000000004     45.411950000000004
C      46.484550000000006     47.794249999999998     44.827950000000001
C      49.888749999999995     46.909450000000000     43.868549999999999
C      46.642649999999996     49.212949999999999     45.303550000000001
C      46.487749999999998     45.459650000000003     44.889749999999992
C      47.509750000000004     50.133649999999996     44.424949999999995
H      48.813849999999995     48.031150000000004     51.008550000000000
H      45.662150000000004     47.836950000000002     47.016249999999999
H      53.600749999999998     47.639050000000005     46.714749999999995
H      52.601649999999999     46.339950000000002     44.947549999999993
H      44.187450000000005     48.992650000000005     52.938149999999993
H      43.675350000000002     48.143250000000002     48.739550000000008
H      50.866650000000000     48.934550000000002     50.730849999999990
H      53.083250000000000     49.114950000000000     49.120750000000001
H      50.245250000000006     47.906250000000007     43.240849999999995
H      45.801150000000000     47.453150000000001     44.081750000000000
H      48.583750000000002     46.951650000000001     43.876549999999995
H      50.642050000000005     46.221950000000000     43.032749999999993
H      47.484150000000007     48.264050000000005     52.947649999999996
H      42.399250000000002     48.045650000000002     52.287349999999989
H      47.282149999999994     49.140849999999993     46.220849999999999
H      45.555850000000000     49.500850000000000     45.189250000000001
H      46.786849999999994     44.688549999999999     45.642550000000000
H      45.452350000000003     45.173650000000002     44.220249999999993
H      47.085249999999995     45.134450000000001     43.990150000000000
H      47.580949999999994     51.311450000000001     44.572350000000000
H      46.852349999999994     50.053049999999999     43.279250000000005
H      48.353249999999996     49.637949999999996     43.831549999999993
O      46.739550000000001     48.842250000000000     52.967250000000007
O      42.444449999999996     47.720750000000002     51.311149999999998
