7

C      47.738299999999995     47.789199999999994     48.542499999999997
C      47.010600000000004     47.478200000000001     47.527699999999996
C      48.634200000000007     48.498599999999996     49.227699999999999
H      48.263900000000000     49.445599999999999     49.604600000000005
H      46.246500000000005     46.554400000000001     47.874700000000004
H      49.753499999999995     48.402199999999993     49.175100000000000
H      47.164600000000007     47.657299999999992     46.395399999999995
