18

C      47.792499999999990     47.747099999999996     48.566999999999993
C      48.400099999999995     48.028800000000004     47.280800000000006
C      48.607900000000001     47.747600000000006     49.785400000000003
C      49.903800000000004     47.935100000000006     47.200399999999995
C      46.393199999999993     47.443700000000007     48.607700000000001
C      47.500299999999996     48.251599999999996     46.241999999999997
C      49.936099999999996     48.027900000000002     49.720000000000006
C      50.502499999999998     48.356999999999999     48.349499999999999
C      45.445999999999998     47.438299999999998     47.520699999999998
C      46.182900000000004     47.862700000000004     46.433100000000003
H      48.111699999999999     47.273300000000006     50.682499999999997
H      50.417200000000008     48.078500000000005     46.362900000000003
H      46.094499999999996     47.365300000000005     49.616800000000005
H      47.874799999999993     48.726699999999994     45.305600000000005
H      50.408400000000000     48.286100000000005     50.694399999999995
H      51.695300000000003     47.862099999999998     48.212899999999998
H      44.304699999999997     47.344300000000004     47.570600000000006
H      45.468299999999999     48.043300000000002     45.532900000000005
