50

C      48.452399999999983     47.117899999999992     49.569299999999998
C      47.359199999999994     46.597300000000004     50.574799999999996
C      45.356199999999994     46.591499999999996     45.781099999999995
C      44.317099999999989     46.156199999999998     46.596900000000005
C      48.277199999999986     47.076799999999992     48.210300000000004
C      46.265999999999998     46.000699999999995     50.002099999999999
C      46.709099999999999     46.953099999999992     46.163100000000000
C      44.726099999999995     45.617599999999996     47.947999999999993
C      47.000599999999999     46.628299999999996     47.544399999999996
C      45.922499999999992     46.061899999999994     48.621600000000001
C      49.522299999999994     47.683800000000005     50.360100000000003
C      49.819799999999994     47.282599999999988     51.727099999999993
C      48.891599999999990     46.246600000000001     52.453199999999995
C      47.644499999999987     46.026699999999991     51.923399999999987
C      45.050399999999989     47.237499999999997     44.589299999999994
C      43.786299999999990     47.061099999999996     44.049199999999999
C      42.828899999999997     46.236000000000004     44.779100000000000
C      43.090100000000000     45.633700000000005     45.997100000000003
C      50.348099999999995     48.329599999999999     49.338999999999999
C      51.679199999999987     48.573700000000002     49.885599999999997
C      51.926899999999996     48.613199999999992     51.253199999999993
C      50.984599999999993     48.020999999999987     52.111099999999993
C      50.330999999999996     48.234700000000004     47.904499999999999
C      49.256799999999991     47.695200000000000     47.272000000000006
C      48.971199999999989     47.621399999999994     45.857399999999998
C      47.737599999999993     47.442899999999995     45.250500000000002
C      45.991399999999992     47.681500000000000     43.564099999999996
C      47.429399999999994     47.632800000000003     43.821700000000007
C      52.921899999999987     48.958599999999990     48.846900000000005
C      53.102799999999995     50.433800000000005     48.591499999999996
C      50.271399999999993     48.124399999999994     45.160399999999996
H      45.554899999999996     45.582200000000000     50.546099999999996
H      44.137399999999992     45.304900000000004     48.900300000000001
H      49.347499999999989     45.711799999999997     53.374899999999997
H      46.880499999999991     45.155100000000004     52.277199999999993
H      43.547300000000000     47.172299999999993     42.895600000000002
H      41.923600000000000     45.831099999999992     44.262400000000000
H      42.511999999999993     44.861599999999996     46.479299999999995
H      52.923899999999996     48.943899999999999     51.640500000000003
H      50.906900000000000     48.605800000000002     52.983599999999996
H      51.027099999999997     48.909899999999993     47.370999999999995
H      45.567199999999993     47.783499999999989     42.625100000000003
H      48.270299999999999     48.010300000000001     43.058599999999998
H      52.239899999999999     51.138400000000004     48.760000000000005
H      53.398099999999992     50.683399999999992     47.568399999999997
H      54.076400000000000     50.940699999999993     48.972099999999998
H      51.184099999999994     47.767200000000003     45.860900000000001
H      49.967399999999991     49.082999999999984     44.732600000000005
H      50.396099999999997     47.779299999999992     44.140600000000006
O      53.468899999999998     48.319099999999992     48.066100000000006
