8

C      47.733949999999993     48.201199999999993     48.666049999999998
C      48.294749999999993     47.491500000000002     47.283350000000006
H      46.877949999999998     47.559500000000000     49.235050000000008
H      47.533149999999992     49.249499999999998     48.575550000000000
H      48.642650000000003     47.918200000000006     49.381350000000005
H      48.762550000000005     48.083400000000005     46.618649999999995
H      47.516049999999993     46.968100000000000     46.958350000000003
H      49.122050000000002     46.750500000000002     47.712550000000000
