18

C      48.112200000000001     48.624649999999995     48.479049999999994
C      47.598300000000002     47.575949999999999     47.573450000000001
C      49.555700000000009     48.920249999999996     48.579549999999998
C      48.575800000000008     46.883650000000003     46.739649999999997
C      46.984600000000007     49.365650000000002     48.919250000000005
C      46.407400000000003     46.963250000000002     47.858750000000001
C      50.384099999999997     48.443150000000003     47.621549999999999
C      49.822600000000001     47.392150000000001     46.774450000000002
C      45.645800000000001     49.017049999999998     49.076449999999994
C      45.601000000000006     47.654850000000003     48.786850000000001
H      50.093300000000006     49.705650000000006     49.238349999999997
H      48.523600000000009     45.899450000000002     46.242249999999999
H      47.360599999999998     50.100549999999998     49.757750000000001
H      45.824800000000003     46.233249999999998     46.970849999999999
H      51.427900000000001     48.641350000000003     47.287649999999999
H      50.683399999999999     46.605449999999998     46.586050000000000
H      44.603100000000005     49.640950000000004     49.513249999999999
H      44.572099999999999     47.074849999999998     48.743650000000002
