18

C      47.970049999999986     47.486649999999997     47.649399999999993
C      47.158250000000002     48.529049999999998     48.175899999999999
C      48.177649999999993     46.213849999999994     48.353300000000004
C      47.363149999999997     48.565349999999995     49.618499999999997
C      48.659150000000004     47.496349999999993     46.406099999999995
C      47.006149999999998     49.748249999999999     47.307199999999995
C      48.225150000000006     46.144949999999994     49.668800000000005
C      47.948749999999997     47.442750000000004     50.243499999999997
C      48.543050000000001     48.564149999999998     45.555300000000003
C      47.798049999999996     49.589550000000003     46.111599999999996
H      47.984649999999995     47.518050000000002     51.368499999999997
H      48.220750000000002     45.144149999999996     47.748499999999993
H      47.025349999999996     49.485450000000000     50.386899999999997
H      49.240249999999996     46.642749999999992     46.273099999999999
H      46.759750000000004     50.855850000000004     47.737299999999998
H      48.616449999999993     45.266249999999999     50.293700000000001
H      49.109950000000005     48.885449999999992     44.631500000000003
H      48.155250000000002     50.463549999999998     45.553799999999995
