18

C      47.629899999999992     48.348599999999990     47.361699999999999
C      48.152899999999995     47.071700000000000     47.607799999999997
C      46.171799999999998     48.553099999999993     47.559699999999992
C      47.211400000000005     46.143399999999993     48.239500000000007
C      48.729300000000002     49.398299999999999     47.025899999999993
C      49.559699999999999     46.776699999999998     47.784700000000001
C      45.289600000000000     47.286499999999997     47.664299999999997
C      45.842499999999994     46.140200000000000     48.401899999999998
C      50.032800000000002     49.135500000000000     47.179800000000000
C      50.458700000000000     47.765899999999995     47.228200000000001
H      45.934400000000004     49.224399999999996     48.403499999999994
H      47.560600000000001     45.355399999999996     48.921499999999995
H      48.750300000000003     50.671500000000002     47.179900000000004
H      49.879399999999997     45.752100000000006     48.031099999999995
H      44.559800000000003     47.007100000000001     46.981800000000007
H      45.314199999999992     45.328499999999998     49.037599999999998
H      50.929099999999998     49.863700000000001     46.962400000000002
H      51.440199999999997     47.542099999999998     47.296199999999999
