20

C      50.296649999999993     47.684399999999997     48.968479999999992
C      46.877350000000000     48.237600000000000     47.859459999999999
C      48.265749999999997     47.727599999999995     47.714059999999996
C      46.848749999999995     49.430300000000003     48.623179999999998
C      49.089250000000000     48.404100000000000     48.790979999999998
C      45.933149999999998     47.148600000000002     47.777720000000002
C      48.693150000000003     46.714600000000004     46.774839999999998
C      47.739850000000004     50.219300000000004     49.461879999999994
C      48.904750000000000     49.604299999999995     49.610380000000006
C      46.414050000000003     45.916799999999995     47.329940000000001
C      47.721950000000000     45.718900000000005     46.769230000000000
H      51.011150000000001     47.822800000000001     49.728879999999990
H      45.816749999999999     50.088200000000001     48.535799999999995
H      50.463949999999997     46.634200000000007     48.559060000000002
H      44.988849999999999     47.284999999999997     48.233120000000000
H      49.618549999999999     46.712000000000003     46.493699999999997
H      47.470749999999995     51.197299999999998     49.906980000000004
H      49.760949999999994     50.024400000000000     49.921480000000003
H      45.408649999999994     45.678200000000004     46.749029999999998
H      47.723749999999995     44.802700000000002     46.078519999999997
