18

C      47.596499999999992     47.671849999999992     48.376499999999993
C      48.140300000000011     48.772949999999994     47.453900000000004
C      47.909600000000012     47.544849999999997     49.828099999999999
C      48.602400000000003     49.995049999999999     48.122100000000003
C      47.249099999999999     46.469449999999995     47.966799999999999
C      48.250000000000014     48.599849999999996     46.114300000000000
C      48.587600000000009     48.603049999999989     50.312500000000000
C      48.763700000000014     49.707649999999994     49.442399999999999
C      47.748199999999997     46.208949999999994     46.543300000000002
C      48.114200000000011     47.195949999999996     45.708100000000002
H      47.918800000000005     46.486649999999997     50.294600000000003
H      48.623700000000014     50.843650000000004     47.331200000000003
H      46.982399999999998     45.573749999999997     48.616800000000005
H      48.641900000000007     49.393049999999995     45.387700000000002
H      49.017400000000009     48.808250000000008     51.415299999999995
H      49.017600000000002     50.402349999999991     50.180600000000005
H      47.926000000000002     45.156349999999996     46.567100000000003
H      48.561900000000009     47.363949999999996     44.584700000000005
