39

C      47.198999999999998     51.125549999999990     52.557149999999993
C      46.580799999999996     44.798150000000000     44.335949999999997
C      47.944500000000005     49.846550000000001     53.128650000000000
C      46.330600000000004     46.222749999999998     44.191949999999999
C      46.462699999999998     50.956550000000000     51.449150000000003
C      47.657300000000006     44.450849999999996     45.024749999999997
C      46.682600000000008     47.066849999999995     45.211350000000003
C      49.766599999999997     45.065350000000002     46.345649999999999
C      49.826099999999997     45.214049999999993     47.709150000000001
C      45.972300000000004     49.704249999999995     49.140850000000000
C      46.625500000000002     48.956449999999997     48.026249999999997
C      49.163300000000007     46.970750000000002     49.637450000000001
C      46.564700000000002     49.860049999999994     50.533050000000003
C      48.319099999999992     45.386450000000004     45.953650000000003
C      49.165299999999988     46.304350000000007     48.278449999999999
C      47.883200000000002     49.294350000000001     50.772250000000000
C      47.595200000000006     46.592949999999995     46.124850000000002
C      47.746800000000007     48.131650000000000     48.422950000000000
C      48.261399999999995     48.073550000000004     49.765949999999997
C      48.218599999999995     47.074949999999994     47.607950000000002
C      45.568899999999999     46.822049999999997     42.994349999999997
H      46.552000000000007     51.802050000000001     53.285750000000000
H      45.979299999999995     44.370550000000001     43.517749999999999
H      48.379199999999997     49.903150000000004     54.105350000000001
H      47.902799999999999     43.373049999999999     45.106450000000002
H      45.031099999999995     50.276450000000004     49.388750000000002
H      46.250000000000000     49.179750000000006     47.020750000000000
H      49.500299999999996     46.481850000000001     50.599649999999997
H      45.129999999999995     48.032249999999998     42.940550000000002
H      48.410100000000000     50.340449999999997     50.609450000000002
H      45.959100000000007     52.626950000000001     51.699849999999998
H      46.351399999999998     49.315549999999995     45.161149999999999
H      50.839700000000008     45.375149999999998     49.361150000000002
N      48.191600000000008     48.955750000000002     52.208950000000002
O      45.500100000000003     46.347950000000004     41.894649999999999
O      50.968900000000005     44.977550000000001     48.417250000000003
O      45.496700000000004     51.930249999999994     51.268749999999997
O      46.325400000000002     48.431050000000006     45.564349999999997
O      50.521400000000000     44.627550000000006     45.526750000000000
