18

C      48.605449999999990     48.804799999999986     47.841999999999992
C      47.938449999999996     47.750900000000001     48.380899999999997
C      50.061949999999989     48.833399999999997     47.565700000000007
C      48.364249999999991     46.444100000000006     48.830799999999996
C      47.677149999999997     49.832700000000003     47.598600000000005
C      46.540849999999992     47.687500000000000     48.511800000000008
C      50.312949999999994     47.456299999999999     47.879800000000003
C      49.696049999999993     46.259799999999998     48.403400000000005
C      46.175449999999998     49.920600000000007     47.549300000000002
C      45.711549999999995     48.802499999999995     48.205100000000002
H      49.955549999999995     49.380200000000002     46.608000000000004
H      47.691949999999991     45.673199999999994     49.391999999999996
H      47.963449999999995     50.649799999999999     47.072100000000006
H      46.040949999999995     46.652900000000002     48.700400000000002
H      51.397150000000003     47.117999999999995     48.006000000000000
H      50.380249999999997     45.350200000000001     48.380499999999998
H      45.577849999999998     50.632900000000006     46.987200000000001
H      44.602849999999997     48.681600000000003     48.383099999999999
