18

C      47.238799999999998     47.554649999999995     48.222849999999994
C      48.533200000000008     48.123849999999997     48.093150000000001
C      46.905700000000010     46.644050000000000     47.164250000000003
C      49.552199999999999     47.710349999999998     47.160950000000007
C      46.239400000000003     48.102449999999997     49.035350000000001
C      49.073599999999999     48.785750000000000     49.280250000000002
C      47.694900000000004     46.865949999999991     45.886050000000004
C      49.162700000000001     46.836049999999993     46.221650000000004
C      46.663000000000011     49.046550000000003     49.913249999999998
C      48.116600000000005     49.336149999999996     50.099250000000005
H      45.945700000000002     46.267850000000003     47.107350000000004
H      50.644899999999993     47.743549999999992     47.442649999999993
H      45.355100000000007     47.499549999999992     49.234150000000007
H      50.050299999999993     48.970649999999999     49.437450000000005
H      47.579200000000000     46.992150000000002     44.824949999999994
H      49.973900000000000     46.371749999999999     45.640149999999998
H      46.115499999999997     49.149849999999994     50.914650000000002
H      48.733000000000004     49.732149999999997     51.175050000000006
