18

C      47.910599999999988     48.633614999999992     47.990199999999987
C      47.853800000000000     47.219515000000001     48.324199999999998
C      48.617799999999995     48.854415000000003     46.734899999999989
C      48.375599999999999     46.127295000000004     47.475299999999997
C      47.597799999999999     49.834514999999996     48.743899999999989
C      47.236499999999999     46.910714999999996     49.530600000000000
C      49.054300000000005     47.927414999999996     45.783899999999996
C      49.024800000000006     46.581514999999996     46.283299999999990
C      47.014000000000003     49.421715000000006     49.975699999999996
C      47.050300000000000     47.984414999999998     50.422899999999991
H      48.645599999999995     49.795114999999996     46.061399999999999
H      48.498700000000007     45.238484999999997     48.533099999999997
H      48.129700000000007     50.761515000000003     48.445299999999996
H      47.162700000000008     45.843344999999999     50.031699999999994
H      49.549699999999994     48.236715000000004     44.890200000000000
H      49.229999999999997     46.157335000000003     45.355399999999996
H      46.475500000000004     50.050415000000001     50.610099999999996
H      46.450300000000006     47.502714999999995     51.109800000000000
