18

C      47.829000000000001     48.850249999999988     48.952849999999991
C      48.091700000000003     47.634350000000005     48.201550000000012
C      48.814400000000006     49.780750000000005     49.029750000000007
C      49.227400000000003     47.717149999999997     47.338050000000010
C      46.571799999999996     49.195249999999994     49.513950000000008
C      47.428799999999995     46.447749999999992     48.628950000000003
C      50.256399999999999     49.497250000000001     48.931150000000002
C      50.372799999999998     48.367950000000000     47.879649999999998
C      45.726799999999997     48.148149999999994     49.237949999999998
C      46.111800000000002     46.760050000000000     49.034050000000008
H      48.644199999999998     50.542449999999995     49.630150000000000
H      49.269700000000000     47.214250000000000     46.369850000000000
H      46.371400000000008     50.238350000000004     49.599550000000008
H      47.766900000000007     45.457550000000005     48.544150000000002
H      50.947699999999998     49.967649999999999     49.531550000000010
H      51.441199999999995     48.249749999999999     47.999949999999998
H      44.558800000000005     48.562949999999994     49.471150000000009
H      45.561199999999999     46.013849999999998     49.588050000000010
