6

C      48.670299999999997     47.877699999999990     47.396099999999990
C      47.513199999999998     47.813900000000004     48.290199999999999
H      49.643799999999999     47.152299999999997     47.690399999999997
H      48.997899999999987     48.847700000000003     46.730599999999995
H      47.859099999999998     47.474199999999996     49.269400000000005
H      46.356200000000001     47.951599999999999     47.849599999999995
