18

C      47.966999999999992     47.328400000000002     47.607199999999999
C      47.700900000000004     48.643900000000009     48.197000000000003
C      47.441400000000002     47.216799999999999     46.322500000000005
C      47.203199999999995     49.794699999999999     47.510900000000007
C      48.739800000000002     46.342300000000002     48.217600000000004
C      47.867599999999996     48.667600000000000     49.686000000000007
C      46.590199999999996     48.259999999999998     45.677500000000002
C      46.562899999999999     49.578099999999999     46.289100000000005
C      49.264499999999998     46.754300000000008     49.391300000000001
C      48.745500000000007     47.797000000000004     50.212800000000001
H      47.568600000000004     46.450899999999997     45.683400000000006
H      47.178799999999995     50.798999999999999     48.204300000000003
H      49.130200000000002     45.201000000000001     47.998700000000014
H      47.512900000000002     49.588200000000008     50.244100000000003
H      46.042699999999996     47.982500000000009     44.715900000000005
H      46.196399999999997     50.353800000000000     45.682500000000005
H      49.957300000000004     46.001300000000008     49.625000000000000
H      49.211500000000001     47.919600000000010     51.284099999999995
