18

C      47.662449999999993     48.477399999999989     47.467459999999996
C      47.846550000000001     47.815799999999996     48.657769999999999
C      47.170849999999994     47.614199999999997     46.417476200000003
C      47.609249999999996     46.409800000000004     49.031520000000000
C      47.682349999999992     49.879199999999997     46.905570000000004
C      48.124450000000003     48.827100000000002     49.572090000000003
C      47.505350000000000     46.294100000000000     46.648879000000001
C      47.763749999999995     45.660299999999992     47.799390000000002
C      48.250650000000000     50.580600000000004     48.079900000000002
C      48.373849999999997     50.190799999999996     49.383110000000002
H      46.667049999999996     47.917199999999994     45.474609999999998
H      47.510050000000000     46.235299999999995     50.021000000000001
H      47.243149999999993     50.355400000000003     45.966210000000011
H      48.309649999999998     48.359399999999994     50.525390000000002
H      47.160549999999994     45.541600000000003     45.973509999999997
H      47.525749999999995     44.457899999999995     48.010220000000004
H      48.488949999999996     51.542100000000005     47.855960000000003
H      49.332950000000004     50.742400000000004     49.988530000000011
