18

C      48.728699999999989     47.507679999999993     48.586599999999990
C      47.262000000000000     47.707210000000003     48.600300000000004
C      49.159799999999997     46.528354999999983     47.621700000000004
C      46.450499999999998     46.699355000000011     47.879199999999997
C      49.630699999999997     48.541395000000001     49.121399999999994
C      46.533899999999996     48.757115000000006     49.244600000000005
C      48.455199999999998     45.904554999999995     46.584000000000003
C      47.026299999999999     46.010555000000018     46.812600000000003
C      48.879199999999990     49.659874999999992     49.453400000000002
C      47.499299999999998     49.736715000000004     49.781400000000005
H      50.288199999999996     46.467654999999993     47.580500000000001
H      45.270299999999999     46.709054999999992     48.119299999999996
H      50.729700000000001     48.462685000000000     48.980500000000006
H      45.435899999999997     48.772874999999999     49.453200000000010
H      49.069399999999995     45.346754999999980     45.783199999999994
H      46.405400000000000     45.216355000000000     46.196600000000004
H      49.196399999999990     50.783645000000000     49.740200000000002
H      46.899299999999997     50.469365000000003     50.216800000000006
