19

C      48.380213999999988     47.483499999999985     47.678524999999993
C      47.882214000000005     48.476599999999991     48.425625000000004
C      47.315613999999997     46.583299999999994     47.211545000000001
C      46.619513999999995     48.824100000000001     48.962224999999997
C      49.720814000000004     47.145299999999992     47.245635000000000
C      48.824414000000004     49.708699999999993     48.798724999999997
C      46.008613999999994     46.885899999999992     47.626424999999998
C      45.548513999999997     47.959099999999992     48.469325000000005
C      50.498514000000000     47.998499999999993     48.086625000000005
C      50.110414000000006     48.904100000000000     49.069125000000007
H      48.458814000000004     50.189599999999999     49.904424999999996
H      47.119314000000003     45.670299999999997     46.506994999999996
H      46.491814000000005     49.750000000000000     49.494624999999992
H      50.291914000000006     46.591600000000000     46.095575000000004
H      49.154814000000002     50.329700000000003     47.806525000000001
H      45.424614000000005     46.035399999999996     47.527025000000002
H      44.457613999999992     47.916100000000000     48.815925000000000
H      51.542386000000008     47.795299999999997     48.133125000000000
H      51.022413999999998     49.097399999999993     49.899324999999997
