18

C      47.968399999999995     47.143349999999991     47.739099999999986
C      48.557600000000008     48.415649999999999     48.259699999999995
C      47.427100000000003     46.723050000000001     46.477399999999989
C      48.832100000000004     49.312649999999991     47.187899999999999
C      47.316600000000001     46.243150000000000     48.647899999999993
C      48.770400000000002     48.559650000000005     49.720799999999997
C      48.006200000000000     47.680549999999997     45.536299999999997
C      48.370000000000005     49.042149999999999     45.853600000000000
C      47.765999999999998     46.367449999999998     49.962899999999991
C      48.233900000000006     47.561850000000007     50.627099999999999
H      46.962800000000001     45.781550000000003     46.177299999999988
H      49.173000000000002     50.429150000000000     47.495099999999994
H      46.593299999999999     45.570850000000000     48.290599999999998
H      49.406700000000001     49.510950000000001     50.280299999999997
H      48.004499999999993     47.488950000000003     44.340299999999999
H      48.584200000000003     50.082349999999998     45.446299999999994
H      47.299599999999998     45.868450000000003     50.929400000000001
H      48.846800000000002     47.776049999999998     51.659700000000001
