18

C      48.999649999999988     48.558969999999988     48.700249999999997
C      48.646149999999999     48.756019999999999     47.245249999999999
C      49.801849999999995     47.506430000000002     49.224249999999998
C      49.413850000000004     47.979349999999997     46.301050000000004
C      48.226850000000006     49.211689999999997     49.688850000000002
C      47.652250000000002     49.667999999999999     46.854150000000004
C      49.736349999999995     46.442679999999996     48.319249999999997
C      50.126250000000006     46.719299999999997     46.883449999999996
C      47.175850000000004     49.946729999999995     49.149249999999995
C      46.807650000000002     50.178739999999998     47.766050000000007
H      49.654450000000004     46.117959999999997     46.124650000000003
H      47.341749999999998     49.663609999999998     45.742649999999998
H      49.613250000000001     47.505249999999997     50.329650000000001
H      49.293249999999993     48.695020000000007     45.357550000000003
H      48.274849999999994     48.824320000000000     50.642449999999997
H      50.146949999999997     45.363509999999998     48.564750000000004
H      46.560750000000006     50.636490000000002     50.035250000000005
H      45.853050000000003     50.412099999999988     47.282750000000007
