8

C      47.777449999999988     47.316534999999995     47.879049999999992
C      48.424549999999989     48.692745000000002     47.894449999999999
H      47.600649999999995     46.952555000000004     48.972850000000001
H      48.445149999999991     46.622275000000002     47.389450000000004
H      46.960850000000001     47.186845000000005     47.229550000000010
H      49.039149999999999     48.860055000000003     47.027149999999999
H      49.003049999999995     48.538215000000001     48.762850000000007
H      47.688049999999997     49.377724999999998     48.135050000000000
