5

C      48.002934999999994     48.105949999999993     47.729349999999990
H      48.056035000000001     48.259149999999998     48.783649999999994
H      47.207825000000000     48.841950000000004     47.216350000000006
H      48.811534999999999     48.677150000000005     47.385649999999998
H      47.188465000000001     47.158049999999996     47.695449999999994
