18

C      48.518066499999989     48.087849999999996     47.700599999999987
C      47.374086500000004     48.077050000000000     48.604900000000001
C      49.414166500000007     47.029049999999998     47.630099999999999
C      47.293476499999997     46.905850000000001     49.493799999999993
C      48.545856499999999     49.351349999999996     46.998300000000000
C      46.352216499999997     49.120549999999994     48.864499999999992
C      49.633196499999997     46.033349999999999     48.515099999999990
C      48.385136500000002     45.965249999999997     49.255399999999995
C      47.434476500000002     50.144750000000002     47.141199999999998
C      46.364036499999997     50.185749999999999     48.200199999999995
H      50.348366499999997     47.310350000000000     47.036099999999990
H      46.298316499999999     46.789249999999996     49.976100000000002
H      49.300656500000002     49.432850000000002     46.023899999999998
H      45.370203500000002     48.846149999999994     49.411299999999997
H      50.629796499999998     45.313749999999999     48.407399999999996
H      48.369746500000005     45.113749999999996     49.914900000000003
H      47.464306500000006     50.886250000000004     46.340800000000002
H      45.413376499999998     50.794950000000000     48.102599999999995
