51

C      46.097799999999999     51.632700000000000     50.936909999999997
C      45.428299999999993     50.208300000000001     51.029709999999994
C      52.235900000000001     45.211300000000001     43.859310000000008
C      52.735200000000006     46.364300000000000     44.495300000000000
C      50.949500000000000     44.913100000000000     44.545220000000000
C      47.067999999999998     51.933200000000006     49.858410000000006
C      45.789199999999994     49.315000000000005     50.108410000000006
C      49.242199999999997     45.214000000000006     46.241659999999996
C      48.358599999999996     46.231000000000002     46.800979999999996
C      48.822800000000001     51.109699999999997     48.167199999999994
C      47.220900000000000     48.605800000000002     48.278270000000006
C      50.312299999999993     45.787500000000001     45.472229999999996
C      47.674300000000002     50.859800000000000     48.966009999999997
C      46.881500000000003     49.633299999999998     49.035610000000005
C      49.363100000000003     49.907000000000004     47.790289999999999
C      51.172200000000004     46.866300000000003     45.874470000000002
C      49.180599999999998     47.421900000000001     47.115449999999996
C      48.645899999999997     48.647200000000005     47.841419999999999
C      50.519099999999995     47.663600000000002     46.775790000000001
C      47.191100000000006     46.003900000000002     47.625090000000000
C      46.784099999999995     47.121200000000002     48.345259999999996
C      45.592399999999998     46.977600000000002     49.122209999999995
C      45.217299999999994     48.133400000000002     49.954110000000000
C      44.311700000000002     49.922199999999997     51.903409999999994
C      43.710999999999999     48.689000000000000     51.933109999999999
C      44.056700000000006     47.644500000000001     50.881810000000002
C      50.634399999999999     43.372300000000003     44.622560000000007
C      49.242000000000004     43.391500000000001     44.286709999999999
C      48.760099999999994     43.878600000000006     45.759429999999995
C      43.016599999999997     46.888900000000000     50.479209999999995
C      45.868600000000001     52.586599999999997     52.025310000000005
H      52.581999999999994     44.716200000000001     42.965289999999996
H      53.765299999999996     46.581600000000002     44.172030000000007
H      47.397000000000006     52.940500000000007     49.784310000000005
H      49.031499999999994     52.078200000000002     48.040099999999995
H      46.772000000000006     45.034200000000006     47.645499999999998
H      45.287899999999993     45.976400000000005     49.210809999999995
H      43.438699999999997     48.169200000000004     52.893209999999996
H      44.031599999999997     50.776199999999996     52.592609999999993
H      51.131100000000004     42.876100000000001     45.654399999999995
H      51.233699999999999     42.784700000000001     43.967790000000008
H      48.980000000000004     44.202900000000000     43.485889999999998
H      48.888300000000001     42.412100000000002     44.276060000000001
H      49.240700000000004     43.213200000000001     46.578720000000004
H      47.789800000000000     43.488300000000002     46.104479999999995
H      43.039500000000004     46.111100000000000     49.593609999999998
H      42.234700000000004     46.811300000000003     51.213009999999997
H      45.546999999999997     52.113500000000009     53.034710000000004
H      46.334999999999994     53.587899999999998     51.942409999999995
N      52.423999999999992     47.151900000000005     45.546850000000006
S      51.048400000000001     49.502400000000002     47.023470000000003
