18

C      48.202699999999993     47.269550000000002     47.904750000000000
C      48.548600000000000     48.793950000000009     47.909950000000009
C      47.841900000000003     46.736950000000007     46.676550000000006
C      48.306400000000004     49.524650000000008     46.726050000000001
C      48.208199999999998     46.641450000000006     49.162050000000008
C      48.189299999999996     49.321550000000002     49.208550000000002
C      47.982300000000002     47.347650000000002     45.381550000000004
C      48.056599999999996     48.776550000000000     45.562950000000001
C      48.313699999999997     47.284450000000007     50.343350000000001
C      48.499599999999994     48.646950000000004     50.349649999999997
H      47.280300000000004     45.732950000000002     46.609350000000006
H      48.719699999999996     50.495249999999999     46.308250000000001
H      47.989899999999999     45.504750000000001     49.372050000000002
H      47.930599999999998     50.489649999999997     48.959850000000003
H      47.369000000000000     47.067950000000010     44.622450000000001
H      47.858100000000000     49.240250000000003     44.587850000000003
H      48.564299999999996     46.585250000000002     51.207350000000005
H      48.300400000000003     49.030450000000002     51.412149999999997
