18

C      47.848969999999994     47.700549999999986     47.384499999999996
C      48.109209999999990     48.223249999999993     48.679500000000004
C      47.046760000000006     46.631349999999991     46.913400000000003
C      47.499899999999997     47.390649999999994     49.714299999999994
C      48.318079999999995     48.588449999999995     46.292500000000004
C      48.546310000000005     49.499749999999992     49.289400000000001
C      46.469480000000004     45.965849999999989     48.002600000000001
C      46.791049999999998     46.317749999999990     49.395300000000006
C      49.201269999999994     49.571349999999995     46.757000000000005
C      49.161760000000001     50.139949999999992     48.145099999999999
H      46.851910000000004     46.259949999999989     45.817400000000006
H      47.282390000000007     47.568249999999992     50.979299999999995
H      48.347660000000005     48.479649999999992     45.020700000000005
H      48.221019999999996     50.049949999999988     50.363600000000005
H      46.091390000000004     45.073449999999994     47.644800000000004
H      46.309770000000000     46.011249999999990     50.520600000000002
H      49.908609999999996     49.528349999999989     46.049700000000001
H      49.857979999999998     50.926550000000006     48.174800000000005
