18

C      47.365149999999993     48.056550000000001     47.513999999999996
C      48.236350000000002     47.805250000000008     48.715499999999999
C      47.222549999999998     47.008350000000000     46.491100000000010
C      48.758550000000000     46.491350000000004     49.147800000000011
C      47.060850000000002     49.401150000000008     47.284300000000009
C      48.807749999999999     48.832850000000001     49.452600000000011
C      47.891649999999998     45.734550000000006     46.705100000000009
C      48.369649999999993     45.651050000000005     48.082799999999999
C      47.427750000000003     50.317150000000005     48.239100000000001
C      48.333749999999995     50.127450000000003     49.281300000000009
H      46.587649999999996     46.957150000000006     45.719799999999999
H      49.042050000000003     46.420450000000002     50.223199999999999
H      46.551050000000004     49.920150000000000     46.462400000000009
H      49.448949999999996     48.617950000000000     50.280200000000001
H      48.232050000000001     44.789750000000005     46.192700000000009
H      48.482250000000008     44.501950000000001     48.198000000000000
H      47.279049999999998     51.498049999999999     48.262300000000003
H      48.700550000000007     50.886850000000003     50.077900000000007
