18

C      48.279029999999992     47.781149999999997     48.507559999999998
C      48.258429999999997     48.563849999999995     47.376150000000003
C      47.377440000000000     48.247750000000003     49.651060000000008
C      47.079470000000001     49.570850000000000     47.138050000000007
C      49.103729999999992     46.597050000000003     48.757260000000009
C      48.905930000000005     48.031450000000000     46.271390000000004
C      46.805950000000003     49.450049999999997     49.648260000000001
C      46.313060000000000     49.932849999999995     48.248440000000009
C      49.888230000000000     46.219149999999992     47.567150000000005
C      49.794330000000009     46.974449999999997     46.438540000000003
H      47.548589999999997     47.997250000000001     50.695460000000004
H      46.647739999999999     49.565850000000005     46.033920000000002
H      48.612630000000003     45.793050000000001     49.524060000000006
H      48.629730000000002     48.360350000000004     45.248640000000002
H      46.750320000000002     49.993649999999995     50.751359999999998
H      45.646070000000002     50.880350000000000     48.119330000000005
H      50.353929999999998     45.119650000000000     47.805070000000008
H      50.114629999999998     46.401949999999992     45.522400000000005
