18

C      47.783199999999987     47.325149999999994     47.894399999999997
C      48.302499999999995     48.628149999999998     48.102599999999995
C      47.869399999999999     46.317850000000000     48.964399999999998
C      49.463599999999992     48.870449999999998     48.911400000000000
C      47.205499999999994     47.185150000000000     46.447699999999998
C      48.018999999999991     49.748250000000006     47.230699999999999
C      48.607999999999990     46.987050000000004     49.904799999999994
C      49.641199999999998     47.972550000000005     49.914299999999997
C      46.600699999999989     48.360650000000000     45.878199999999993
C      47.015399999999993     49.674249999999994     46.243200000000002
H      47.560099999999991     45.165849999999999     49.085700000000003
H      50.241699999999994     49.953049999999998     48.770300000000006
H      46.723999999999990     46.332550000000005     46.507800000000003
H      48.178199999999990     50.834150000000001     47.536000000000001
H      48.728499999999997     46.536149999999999     50.876199999999997
H      50.342500000000001     48.059050000000006     50.765299999999996
H      45.657499999999999     48.088150000000006     45.123800000000003
H      46.393299999999996     50.508549999999993     46.013599999999997
