35

C      47.562899999999992     47.595919999999985     48.258649999999996
C      46.579499999999996     47.033419999999992     47.508150000000001
C      50.414099999999991     45.795119999999997     45.050150000000002
C      49.098199999999999     47.304419999999993     48.067549999999997
C      47.067700000000002     46.070219999999992     46.428350000000009
C      50.718000000000004     46.718719999999990     45.937750000000008
C      49.064599999999999     45.135119999999986     45.175250000000005
C      49.540999999999997     46.647719999999993     46.928250000000006
C      48.448099999999997     45.814519999999987     46.265650000000008
C      47.148600000000002     48.464419999999990     49.316150000000007
C      45.568600000000004     48.533919999999995     49.529250000000005
C      44.612800000000000     47.740019999999987     48.892849999999996
C      45.155900000000003     46.993819999999999     47.841850000000008
C      47.808000000000007     48.740819999999999     50.583550000000002
C      47.243600000000001     49.796047000000002     51.407550000000001
C      45.277500000000003     49.583094699999990     50.336750000000009
C      49.720999999999997     47.613219999999998     49.293650000000000
C      49.176499999999997     48.261419999999987     50.287050000000008
C      51.518499999999989     45.211619999999996     44.101150000000004
C      51.231899999999996     47.058619999999991     49.587450000000004
H      49.057299999999998     51.701180000000008     51.697249999999997
H      51.571299999999994     47.465919999999997     46.137250000000009
H      48.420699999999997     44.659019999999998     44.476950000000002
H      43.593699999999998     48.041719999999998     49.072749999999999
H      44.664600000000000     46.367319999999992     47.180050000000008
H      44.163499999999999     49.660648000000009     50.424050000000008
H      49.638599999999997     48.779719999999998     51.201350000000005
H      52.406300000000002     45.702419999999989     43.724550000000001
H      51.515000000000001     46.443019999999990     48.718350000000001
H      52.101699999999994     47.759719999999987     49.677549999999997
H      51.254500000000000     46.207819999999998     50.454949999999997
N      46.148699999999998     50.279243000000008     51.115850000000009
O      51.291699999999999     44.298819999999992     43.369050000000001
O      46.487200000000001     45.204519999999988     45.802450000000000
S      48.076700000000002     51.150309999999990     52.630949999999999
