18

C      47.523149999999994     48.243749999999991     48.236599999999996
C      48.753249999999994     48.089849999999998     47.612400000000001
C      46.227949999999993     48.695450000000008     47.717700000000001
C      48.818349999999995     48.210449999999994     46.187999999999995
C      47.254350000000002     48.035349999999994     49.609200000000008
C      49.902150000000006     47.996349999999993     48.530300000000004
C      46.167850000000001     48.744850000000000     46.334899999999998
C      47.442650000000000     48.654849999999996     45.745300000000000
C      48.264250000000004     47.534750000000003     50.413399999999989
C      49.617350000000002     47.854849999999999     49.883600000000001
H      45.279650000000004     48.686849999999993     48.220799999999997
H      49.858050000000006     48.338149999999999     45.605899999999998
H      46.126949999999994     47.781850000000006     49.936500000000002
H      50.721950000000007     48.212350000000001     48.185400000000001
H      45.278049999999993     49.050150000000002     45.641299999999994
H      47.517150000000001     48.344149999999999     44.637200000000000
H      48.057149999999993     46.949849999999998     51.362800000000000
H      50.433049999999994     47.965050000000005     50.545499999999997
