18

C      48.529749999999986     48.198149999999998     47.540904999999988
C      48.253050000000002     47.476950000000002     48.809784000000008
C      48.493849999999995     49.532950000000007     47.345505000000003
C      47.292150000000007     48.209750000000007     49.647955000000003
C      48.813450000000003     47.497550000000004     46.263705000000002
C      48.478750000000005     46.079250000000002     48.886425000000003
C      47.682050000000004     50.294750000000001     48.305822000000006
C      46.822350000000000     49.393750000000004     49.139655000000005
C      49.408950000000004     46.364750000000001     46.567605000000000
C      49.351249999999993     45.602150000000002     47.866077200000007
H      48.905050000000003     50.016349999999996     46.522205000000000
H      47.077950000000001     47.697050000000004     50.674795000000003
H      48.903649999999999     48.091349999999998     45.325204999999997
H      48.073549999999997     45.305250000000001     49.700165000000005
H      47.440950000000001     51.434350000000002     48.108909000000011
H      45.988950000000003     49.481550000000006     49.968775000000008
H      50.011049999999997     46.084750000000000     45.781004999999993
H      49.863050000000001     44.565649999999998     47.918456100000014
