18

C      47.878899999999994     48.214550000000003     47.390049999999995
C      47.872000000000000     47.709450000000004     48.764049999999997
C      47.777099999999997     47.504650000000012     46.169049999999999
C      48.082400000000000     46.358250000000012     48.689050000000002
C      47.787799999999997     49.646950000000004     47.234349999999999
C      47.758600000000001     48.661649999999995     49.798349999999999
C      47.978900000000010     46.058650000000000     46.209249999999997
C      48.198899999999995     45.594450000000009     47.440349999999995
C      47.656500000000001     50.580349999999996     48.201749999999990
C      47.674500000000002     49.957850000000008     49.567450000000001
H      47.584000000000003     47.918850000000006     45.170250000000003
H      48.182800000000000     45.722149999999999     49.473750000000003
H      47.965699999999998     49.948350000000005     46.146549999999998
H      47.873699999999999     48.359650000000002     50.829749999999997
H      47.790300000000002     45.409050000000008     45.201149999999998
H      48.544800000000002     44.448850000000007     47.569249999999997
H      47.787500000000001     51.551149999999993     47.667949999999998
H      47.455199999999998     50.614650000000012     50.499249999999989
