22

C      45.471399999999988     46.736849999999990     50.694384999999983
C      47.672300000000000     48.246549999999992     48.580484999999996
C      48.295999999999999     48.440049999999992     47.232584999999986
C      48.650500000000001     47.857250000000001     49.441397999999992
C      49.634200000000000     48.846749999999993     47.233085000000003
C      46.139500000000005     48.463049999999988     48.663985000000011
C      47.899499999999996     48.818649999999998     45.936484999999976
C      50.036099999999998     47.941250000000004     49.564639999999983
C      50.478500000000004     48.524250000000002     48.277184999999989
C      45.460799999999999     47.966149999999992     49.794974999999994
C      47.246400000000001     49.071549999999995     44.870484999999974
H      45.208000000000006     46.883449999999989     51.654514999999989
H      44.428199999999997     46.057049999999997     50.717474999999993
H      47.258699999999997     50.085850000000001     44.378084999999999
H      46.315599999999996     45.914149999999999     50.696844999999982
H      48.025500000000001     47.661349999999992     50.291244999999989
H      50.109100000000005     49.109149999999993     46.293285000000012
H      45.680000000000000     49.000750000000004     47.867984999999976
H      50.890599999999999     47.719349999999999     50.206844999999987
H      51.571800000000003     48.524849999999994     47.943384999999992
H      44.797500000000007     48.823850000000000     50.021704999999983
H      46.571599999999997     48.409450000000000     44.345485000000011
