5

C      48.028549999999996     48.059550499999986     48.043549999999996
H      48.623150000000003     47.471949499999994     47.186850000000007
H      48.719649999999994     48.528050500000006     48.813149999999993
H      47.340949999999999     48.526540499999996     47.501550000000009
H      47.280350000000006     47.510069500000000     48.583149999999989
