18

C      48.045800000000000     48.785199999999996     48.056500000000000
C      47.804100000000005     47.289000000000001     48.099099999999993
C      46.867400000000004     49.492800000000003     47.389400000000009
C      46.650599999999997     46.599199999999996     47.746400000000008
C      49.210400000000007     49.353399999999993     48.480300000000000
C      48.905199999999994     46.603999999999999     48.874200000000002
C      45.752799999999993     48.748000000000005     47.156700000000001
C      45.593000000000004     47.379000000000005     47.232400000000013
C      50.308999999999997     48.628299999999996     48.950900000000004
C      50.096699999999984     47.253900000000002     48.904299999999992
H      46.796499999999995     50.487300000000005     47.121100000000013
H      46.449799999999996     45.512699999999995     47.945300000000003
H      49.140500000000003     50.354900000000001     48.421000000000006
H      48.969600000000000     45.570400000000006     49.113699999999994
H      44.781000000000006     49.494699999999995     46.761800000000008
H      44.506500000000003     47.255300000000005     46.834800000000001
H      51.493499999999997     48.843099999999993     48.996799999999993
H      50.670000000000002     46.233699999999999     49.238199999999992
