18

C      48.254999999999995     47.843194999999994     48.554599999999994
C      47.836400000000005     48.134585000000001     47.242300000000000
C      47.298999999999999     47.511985000000003     49.612200000000001
C      46.406399999999998     48.149115000000002     47.033600000000007
C      49.512499999999996     48.263044999999998     49.165400000000005
C      48.720000000000006     48.807774999999999     46.319000000000003
C      46.073399999999999     46.930835000000002     49.071800000000010
C      45.617299999999993     47.175285000000002     47.767399999999995
C      50.463799999999999     48.688135000000003     48.278000000000006
C      50.100500000000004     48.802495000000000     46.813100000000006
H      47.646899999999995     46.907235000000000     50.583100000000002
H      46.077400000000004     48.672014999999995     46.081100000000006
H      49.875700000000002     48.050535000000004     50.227999999999994
H      48.467800000000004     49.531974999999996     45.416899999999998
H      45.272299999999994     46.468025000000004     49.719999999999999
H      44.575300000000006     46.763445000000004     47.736500000000007
H      51.424699999999994     48.669654999999999     48.703599999999994
H      50.976000000000006     48.649374999999999     46.282799999999995
