18

C      47.990049999999989     48.354374999999990     48.340899999999991
C      48.043650000000000     47.393944999999995     47.225900000000003
C      47.298249999999996     49.570934999999999     48.314799999999998
C      46.818750000000001     47.605934999999995     46.408999999999999
C      49.066449999999989     48.113214999999997     49.376399999999997
C      48.989849999999997     46.365985000000002     46.935099999999998
C      46.183349999999997     49.822234999999999     47.413400000000003
C      46.032449999999997     48.735594999999996     46.567900000000002
C      49.835350000000005     47.001004999999999     49.231600000000007
C      49.867149999999995     46.226675000000000     48.033000000000001
H      47.344749999999998     50.368234999999999     49.151900000000005
H      46.399749999999997     47.001775000000002     45.651400000000002
H      49.642750000000007     48.825685000000000     50.348599999999998
H      48.985050000000001     45.712825000000002     46.230600000000003
H      45.597549999999998     50.702734999999997     47.158200000000001
H      45.204250000000002     49.106294999999996     45.961800000000004
H      50.795749999999998     47.419944999999998     49.944700000000005
H      50.734250000000003     45.297265000000003     47.911900000000003
