18

C      47.628349999999990     47.693599999999989     47.294950000000000
C      47.349550000000001     47.510700000000007     48.789949999999990
C      46.975849999999994     48.877199999999995     46.908150000000006
C      46.718350000000001     48.343700000000005     49.770949999999999
C      48.812649999999991     47.120100000000001     46.612549999999999
C      48.254549999999995     46.599700000000006     49.377350000000007
C      46.202549999999995     49.677299999999995     47.723550000000003
C      46.077349999999996     49.437300000000000     49.131950000000003
C      49.679949999999998     46.326200000000007     47.332850000000008
C      49.338750000000005     46.012499999999996     48.671549999999996
H      46.764949999999999     49.393800000000006     45.929749999999999
H      46.159749999999995     47.786600000000000     50.482050000000001
H      48.722350000000006     46.997800000000005     45.480450000000005
H      48.175049999999999     46.208800000000004     50.519549999999995
H      45.721550000000001     50.591299999999997     47.402450000000002
H      45.298749999999998     50.014999999999993     49.733849999999990
H      50.701250000000002     45.974300000000007     47.203050000000005
H      50.107549999999996     45.408700000000003     49.276550000000000
