18

C      47.852749999999986     48.448849999999993     48.299349999999990
C      48.416350000000001     47.160549999999994     48.130650000000003
C      48.472950000000004     49.819449999999996     48.162750000000003
C      49.843950000000000     47.160649999999997     47.631850000000000
C      46.400749999999995     48.366650000000000     48.287149999999997
C      47.787249999999993     45.955750000000002     48.584050000000005
C      49.696049999999993     49.563150000000000     47.637950000000004
C      50.430249999999994     48.308850000000000     47.496349999999993
C      45.752749999999999     47.186349999999997     48.785250000000005
C      46.455850000000005     45.964649999999999     48.879149999999996
H      48.146650000000001     51.094950000000004     48.442449999999994
H      50.225349999999999     46.153649999999992     47.398749999999993
H      45.698649999999994     49.129150000000003     47.880949999999999
H      48.260650000000005     45.006849999999993     48.661050000000003
H      50.257449999999999     50.455449999999992     47.608549999999994
H      51.304949999999998     48.448550000000004     46.940349999999995
H      44.695050000000002     47.225450000000002     49.004949999999994
H      45.815350000000002     44.905049999999996     49.059650000000005
