5

C      47.782400000000003     48.268450000000001     47.948050000000002
H      47.600900000000010     48.818750000000001     49.029449999999997
H      47.641000000000005     47.181249999999999     48.326850000000007
H      48.883600000000001     48.202550000000009     47.734750000000005
H      47.116399999999999     48.386950000000006     46.970550000000003
