18

C      48.302299999999988     47.673449999999988     47.556399999999989
C      47.233100000000000     48.320049999999995     48.486499999999992
C      49.448100000000004     46.991450000000000     48.193500000000000
C      47.428800000000003     47.849649999999997     49.827299999999994
C      48.344900000000003     47.750649999999993     46.261200000000002
C      46.422999999999995     49.230850000000004     47.790499999999994
C      49.473999999999997     46.737349999999992     49.546700000000001
C      48.427399999999999     47.198250000000002     50.443299999999994
C      47.347400000000000     48.481449999999995     45.679099999999998
C      46.340300000000006     49.131450000000001     46.372100000000003
H      50.424299999999995     46.716849999999994     47.534499999999994
H      46.609199999999994     48.389349999999993     50.396099999999990
H      49.091900000000003     47.143649999999994     45.538300000000000
H      45.645699999999998     49.870550000000009     48.236499999999999
H      50.319899999999997     46.129449999999991     49.853399999999993
H      48.588299999999997     47.110150000000004     51.423900000000003
H      47.476099999999995     48.499650000000003     44.576099999999997
H      45.575700000000005     49.670450000000002     45.914800000000000
