18

C      48.478900999999993     47.433399999999992     48.013999999999989
C      47.690400000000011     48.703900000000004     48.091300000000004
C      47.777199999999993     46.153400000000005     48.056899999999999
C      46.331099999999992     48.537099999999995     48.353899999999996
C      49.881999999999998     47.168099999999995     47.751300000000001
C      48.585946999999997     49.865200000000002     48.133200000000002
C      46.401099999999992     46.095100000000002     47.574700000000007
C      45.848099999999988     47.180099999999996     48.164000000000001
C      50.373129999999996     48.437500000000014     47.597600000000000
C      49.920059999999999     49.846900000000005     47.594399999999993
H      48.293309999999998     45.139700000000005     47.944599999999994
H      45.586900000000014     49.296500000000009     48.779799999999994
H      50.556500000000007     46.217900000000000     47.621600000000001
H      48.144018099999997     50.860299999999995     48.155100000000004
H      45.972800000000014     45.294399999999996     47.220200000000006
H      44.482100000000003     47.436499999999995     47.879800000000003
H      51.517899999999997     48.142100000000013     47.498000000000005
H      50.525010000000002     50.688000000000002     47.591200000000001
