6

C      47.578299999999992     47.809299999999993     48.620349999999988
C      47.723599999999990     48.750100000000003     47.543750000000003
H      47.727499999999992     46.894300000000001     48.730149999999995
H      47.215299999999999     48.367300000000000     49.663849999999996
H      48.784700000000001     49.105699999999999     47.898849999999996
H      47.941800000000001     48.450499999999991     46.336150000000004
