42

C      48.652099999999997     49.059649999999998     45.949449999999985
C      47.168400000000005     48.925150000000002     45.940150000000003
C      49.975700000000003     46.996549999999999     50.288550000000001
C      48.489100000000001     46.696050000000000     50.420349999999999
C      49.455100000000002     48.712950000000006     46.966750000000005
C      46.982400000000005     48.471549999999993     47.298950000000005
C      50.294899999999998     47.579849999999993     49.056150000000002
C      47.419700000000006     47.296949999999995     49.566450000000003
C      49.228300000000004     47.775949999999995     48.175950000000000
C      47.863400000000006     47.780550000000005     48.358149999999995
C      49.249200000000002     49.549450000000007     44.594449999999995
C      48.505700000000004     49.396349999999998     43.329549999999998
C      47.152300000000004     49.310350000000000     43.454250000000002
C      46.411100000000005     48.987150000000000     44.679949999999991
C      50.976400000000012     46.596850000000003     51.360249999999994
C      50.470000000000006     45.860550000000003     52.442450000000008
C      49.171400000000006     46.426850000000002     52.694350000000000
C      48.025900000000000     46.491349999999997     51.786549999999991
C      50.863000000000000     49.244150000000005     46.361249999999998
C      50.604600000000005     49.496849999999995     44.845450000000000
C      45.680300000000003     47.662649999999999     47.614850000000004
C      44.519800000000004     50.039050000000003     43.588849999999994
C      44.933400000000006     49.235650000000007     44.485649999999993
C      45.725100000000005     46.206149999999994     47.688649999999996
H      47.018300000000004     45.971450000000004     52.126750000000001
H      51.332399999999993     47.776250000000005     48.803349999999995
H      46.337200000000003     47.361249999999998     49.849850000000004
H      49.078400000000002     49.365250000000003     42.234849999999994
H      46.596700000000006     49.149150000000006     42.605750000000000
H      51.183000000000007     45.396150000000006     53.327550000000002
H      48.953200000000002     46.783450000000002     53.765150000000006
H      51.631900000000002     48.364350000000002     46.289249999999996
H      50.907600000000002     50.261150000000001     46.953949999999992
H      51.382899999999999     49.387349999999998     44.137349999999998
H      44.848600000000005     48.430149999999998     47.797350000000009
H      43.586900000000000     50.287750000000003     43.427350000000004
H      45.325900000000004     50.603849999999994     43.112749999999991
H      44.160500000000006     48.727649999999997     45.203749999999999
H      52.413100000000000     47.034549999999996     50.414349999999999
H      46.012900000000002     45.548150000000007     46.863450000000000
H      45.166700000000006     45.434550000000002     48.297449999999998
O      52.296400000000006     46.593350000000001     51.426550000000006
