18

C      48.078599999999987     48.741599999999991     48.188799999999993
C      47.928699999999992     47.395600000000002     47.954400000000000
C      47.634599999999992     49.340000000000003     49.348300000000009
C      47.234499999999997     46.723399999999998     49.106900000000010
C      49.226799999999997     49.285300000000007     47.327199999999998
C      48.580999999999989     46.574900000000000     46.988999999999997
C      46.643199999999993     48.838900000000010     50.140099999999997
C      46.240899999999996     47.507800000000003     49.948300000000003
C      49.923699999999997     48.489999999999995     46.388500000000001
C      49.343999999999994     47.204499999999996     46.051099999999998
H      47.769300000000001     50.467600000000004     49.689500000000002
H      47.337999999999994     45.616500000000002     49.586500000000001
H      49.294499999999999     50.453300000000013     47.108499999999999
H      48.679499999999990     45.532399999999996     46.899000000000001
H      46.083399999999997     49.511700000000005     50.774900000000002
H      45.511200000000002     47.097899999999996     50.745999999999995
H      50.488799999999998     48.841200000000001     45.643000000000001
H      49.807999999999993     46.562899999999999     45.225099999999998
