9

C      49.736799999999988     48.076349999999991     47.840249999999990
C      48.305700000000002     48.557449999999996     47.421350000000004
C      47.066900000000004     48.455149999999996     48.131950000000003
H      49.983199999999997     47.069150000000000     47.090450000000004
H      49.693299999999994     47.688949999999998     48.897549999999995
H      50.321600000000004     48.930850000000000     47.989249999999998
H      48.467399999999998     48.905250000000002     46.326350000000005
H      45.678399999999996     48.449149999999996     49.673649999999995
N      46.034599999999998     48.279049999999991     48.689350000000005
