18

C      47.620874999999998     47.328674999999990     48.134749999999997
C      48.314824999999999     48.363425000000007     47.642150000000001
C      48.130184999999997     46.718294999999998     49.254950000000001
C      49.672584999999998     48.523335000000003     47.932350000000007
C      46.342314999999999     47.053105000000002     47.561950000000003
C      47.843564999999998     49.414315000000002     46.728950000000005
C      49.551725000000005     46.706424999999996     49.570450000000001
C      50.339564999999993     47.567084999999992     48.688150000000000
C      45.818425000000005     48.114535000000004     46.815950000000001
C      46.472385000000003     49.446635000000001     46.521650000000001
H      47.914584999999988     45.770825000000002     49.530350000000006
H      50.437465000000003     49.127775000000000     47.465650000000004
H      45.452074999999994     46.429725000000005     47.653849999999998
H      48.496304999999992     50.257324999999994     46.436750000000004
H      49.927655000000001     45.742675000000006     50.057150000000000
H      51.377094999999997     47.475975000000005     49.027149999999999
H      44.622905000000003     48.113395000000011     46.781450000000000
H      45.801024999999996     50.128295000000008     45.942850000000000
