18

C      47.107999999999990     48.514144999999999     47.820099999999989
C      48.126900000000006     47.493354999999994     47.509499999999996
C      47.514900000000011     49.735555000000005     47.313299999999998
C      49.097100000000012     47.748035000000002     46.466699999999996
C      46.091700000000003     48.180724999999995     48.765899999999995
C      48.001400000000004     46.150054999999995     47.890699999999995
C      48.658199999999994     50.109755000000007     46.577999999999996
C      49.462500000000006     49.098084999999998     45.985499999999995
C      46.564000000000007     47.014215000000007     49.518699999999995
C      47.075800000000001     45.830704999999995     48.956299999999999
H      46.873599999999996     50.615054999999998     47.783599999999993
H      49.929100000000005     47.080074999999994     46.119599999999991
H      45.660899999999998     48.779714999999996     49.534199999999998
H      48.424100000000010     45.168374999999997     47.530599999999993
H      48.822000000000003     51.234054999999998     46.621899999999997
H      50.339100000000002     49.536964999999995     45.683599999999998
H      45.811099999999996     47.087325000000007     50.316400000000002
H      46.688100000000006     44.765945000000002     49.321699999999993
