6

C      48.619950000000003     48.061649999999993     48.064449999999994
C      47.455550000000009     47.621850000000002     48.187049999999999
H      49.242550000000001     47.436349999999997     47.517449999999997
H      48.741950000000010     49.264049999999997     48.184849999999997
H      46.757449999999999     48.502150000000000     48.482550000000003
H      46.872250000000001     46.735950000000003     47.810350000000000
