18

C      47.717099999999988     46.926949999999991     47.403754999999990
C      48.612200000000001     48.043350000000004     46.927254999999988
C      46.275499999999994     47.051850000000002     47.270444999999995
C      48.084300000000013     49.171350000000004     46.467815000000002
C      48.189999999999998     46.278750000000002     48.604734999999991
C      50.062500000000000     47.984250000000003     47.166754999999995
C      45.814499999999995     48.370250000000013     46.850174999999993
C      46.692099999999996     49.359150000000014     46.578085000000002
C      49.540199999999999     46.356850000000009     48.880825000000002
C      50.494100000000003     47.369050000000001     48.360664999999997
H      51.281400000000005     47.469650000000001     48.912414999999996
H      45.664599999999993     46.416049999999998     47.968954999999994
H      48.655299999999997     50.172550000000001     46.037385000000000
H      47.622500000000002     45.716149999999999     49.374314999999996
H      49.647100000000009     45.886049999999997     49.962615000000000
H      44.718599999999995     48.501050000000006     46.914014999999992
H      46.354200000000006     50.283850000000001     46.300114999999991
H      50.689999999999998     48.691650000000010     46.787534999999991
