18

C      48.116349999999997     47.540699999999994     47.788949999999993
C      47.749649999999995     48.526499999999999     48.624549999999999
C      48.901949999999992     46.416499999999999     48.132750000000001
C      48.560549999999999     48.669200000000004     49.860950000000003
C      47.899849999999994     47.547499999999999     46.327650000000006
C      46.950550000000000     49.679400000000001     48.095950000000002
C      49.574649999999998     46.577100000000002     49.353449999999995
C      49.595149999999997     47.867300000000000     50.073350000000005
C      46.735650000000000     48.298000000000002     46.059650000000005
C      46.249149999999993     49.301199999999994     47.008449999999996
H      48.847149999999992     45.499300000000005     47.441549999999999
H      48.312850000000005     49.412499999999994     50.794750000000001
H      48.629650000000005     47.091099999999997     45.553350000000002
H      46.593150000000001     50.500699999999995     48.674850000000006
H      50.595149999999997     45.714399999999998     49.521550000000005
H      50.171950000000002     47.725300000000004     51.002449999999996
H      46.404850000000003     48.466300000000004     44.997550000000004
H      45.404850000000003     49.882400000000004     46.472549999999998
