18

C      48.308999999999990     48.274850000000001     48.459449999999990
C      47.319499999999998     48.119050000000001     47.275749999999995
C      47.850900000000003     48.909149999999997     49.557049999999997
C      46.067999999999998     48.860950000000003     47.293550000000003
C      49.516700000000000     47.491349999999997     48.857750000000003
C      47.601100000000002     47.134749999999997     46.346749999999993
C      46.802400000000006     49.799750000000003     49.468550000000000
C      45.748999999999995     49.633350000000007     48.516849999999998
C      49.875900000000001     46.748050000000006     47.673849999999995
C      48.959199999999996     46.588149999999999     46.620049999999999
H      48.684500000000000     48.986249999999998     50.375250000000001
H      44.955500000000001     48.781550000000010     46.564649999999993
H      50.260600000000004     47.496049999999997     49.690350000000002
H      46.919699999999999     47.402250000000009     45.509250000000002
H      46.702799999999996     50.071449999999999     50.490749999999998
H      44.980000000000004     50.391549999999995     48.317749999999997
H      51.044499999999999     46.238450000000000     47.732350000000004
H      49.046999999999997     45.608450000000005     46.125049999999995
