5

C      47.160749999999993     47.954799999999999     48.021749999999997
C      48.430550000000004     48.002400000000009     48.224149999999995
H      49.461750000000002     47.957899999999995     47.823850000000007
H      46.538249999999998     47.788399999999996     47.033550000000005
H      46.706049999999998     48.211600000000004     48.966449999999995
