5

C      47.860799999999990     48.352200000000003     47.877374999999986
H      47.950299999999999     47.218699999999998     47.903484999999996
H      48.896100000000004     48.781300000000002     47.781934999999997
H      47.103899999999996     48.370800000000003     46.977984999999997
H      47.824600000000004     48.524100000000004     49.022015000000003
