18

C      47.635249999999992     48.777049999999988     47.227499999999992
C      47.629350000000002     47.483850000000004     47.771899999999988
C      48.645250000000004     49.118350000000007     46.362799999999993
C      48.517450000000011     46.465750000000000     47.296799999999990
C      46.444650000000010     49.735749999999996     47.651499999999999
C      46.761250000000004     47.166449999999998     48.958500000000001
C      49.725549999999998     48.257249999999999     45.958900000000000
C      49.335750000000004     46.889949999999999     46.253000000000000
C      46.063950000000006     49.503349999999998     49.046399999999991
C      46.205050000000000     48.244150000000005     49.672199999999989
H      48.652749999999997     49.997050000000002     45.604399999999998
H      48.770850000000010     45.544950000000000     47.715099999999993
H      46.019550000000010     50.455050000000000     46.941699999999997
H      46.801050000000004     46.182050000000004     49.135999999999996
H      50.614350000000002     48.632549999999995     45.376800000000003
H      50.131650000000008     46.375150000000005     45.774400000000000
H      45.385649999999998     50.099249999999998     49.641499999999994
H      45.847650000000002     48.184049999999999     50.623199999999997
