5

C      48.387949999999989     47.902649999999994     47.829299999999996
H      48.770550000000000     47.100650000000002     47.277400000000000
H      48.462250000000012     48.899349999999998     47.277900000000002
H      47.169650000000004     47.859350000000006     48.111199999999997
H      48.830349999999996     47.985250000000008     48.722600000000000
