18

C      48.193950000000001     47.929699999999997     47.345749999999995
C      47.839450000000006     48.513700000000000     48.704050000000002
C      48.852350000000008     46.619299999999996     47.292450000000002
C      47.987850000000002     47.599699999999999     49.768549999999998
C      48.109650000000009     48.559099999999987     46.004750000000001
C      47.263650000000005     49.739800000000002     48.670650000000002
C      49.001450000000013     45.721400000000003     48.447449999999996
C      48.462850000000010     46.325899999999990     49.631350000000005
C      47.634050000000009     49.904600000000002     46.191249999999997
C      47.138350000000010     50.322499999999991     47.361150000000002
H      49.160350000000001     46.419200000000004     46.294649999999997
H      47.452649999999998     47.888800000000003     50.771149999999999
H      47.880150000000008     47.908199999999994     45.228850000000001
H      47.149149999999999     50.337400000000002     49.708849999999991
H      49.403849999999998     44.677999999999997     48.762050000000009
H      48.524350000000005     45.442300000000003     50.288049999999991
H      47.439750000000011     50.762299999999996     45.505350000000000
H      46.596150000000002     51.322000000000003     47.530450000000009
