63

C      48.191649999999996     51.854549999999989     48.495449999999991
C      45.736750000000008     45.083749999999995     48.047749999999994
C      48.926949999999998     51.500850000000000     47.228349999999992
C      47.033549999999998     44.540049999999994     47.611649999999997
C      47.360850000000006     50.901750000000007     49.094049999999996
C      45.317450000000001     46.468050000000005     48.182649999999995
C      50.008650000000010     49.752049999999997     45.751449999999991
C      49.017250000000011     45.274649999999994     46.149349999999998
C      50.463050000000003     48.384950000000003     45.607150000000004
C      50.187549999999995     46.138549999999995     46.322749999999999
C      46.260250000000006     48.633449999999996     48.527849999999987
C      49.394750000000009     50.214050000000000     47.042749999999998
C      47.873950000000001     45.540649999999999     47.079750000000004
C      50.020850000000003     47.532049999999998     46.663650000000004
C      47.260950000000001     49.583749999999995     48.439849999999993
C      46.418550000000003     47.299650000000000     47.908349999999999
C      48.566250000000004     49.217449999999999     47.686049999999994
C      47.780350000000006     46.960750000000004     47.436449999999994
C      48.797650000000012     47.985249999999994     47.277149999999992
C      48.374450000000003     53.150450000000006     48.975149999999999
C      49.263350000000003     54.065049999999999     48.278649999999999
C      49.733449999999998     53.833749999999995     47.051949999999991
C      49.474150000000002     52.602549999999994     46.416349999999994
C      50.159450000000000     52.248949999999994     45.134349999999998
C      50.158250000000002     50.765450000000001     44.694149999999993
C      44.824850000000005     44.172349999999994     48.670850000000002
C      45.097150000000006     42.808250000000001     48.784049999999993
C      46.300050000000006     42.236149999999995     48.257249999999999
C      47.162350000000004     43.133250000000004     47.606349999999992
C      46.370850000000004     51.010249999999999     50.150149999999996
C      46.253550000000004     52.193550000000002     50.917849999999987
C      47.735150000000004     53.816149999999993     50.165149999999997
C      44.378650000000000     46.701449999999994     49.129649999999998
C      45.011550000000007     52.433750000000003     51.586849999999998
C      47.577050000000007     52.937150000000003     51.345949999999988
C      51.734150000000007     48.432950000000005     44.684649999999991
C      44.313549999999999     41.946150000000003     49.902449999999988
H      52.203350000000007     47.557450000000003     44.746749999999992
H      43.365749999999998     42.418350000000004     49.913149999999987
H      49.455450000000006     44.386049999999997     45.712249999999997
H      51.103850000000001     45.828350000000000     45.800349999999995
H      45.233150000000002     48.846050000000005     48.810449999999989
H      49.299350000000004     55.061850000000007     48.692249999999987
H      50.905050000000010     52.919849999999997     44.626750000000001
H      50.598850000000006     50.510549999999995     43.822850000000003
H      44.010750000000002     44.617450000000005     49.323149999999998
H      48.191150000000000     42.723450000000000     47.036749999999998
H      45.458649999999999     50.504149999999996     50.407049999999998
H      46.626449999999998     54.087050000000005     49.652050000000003
H      48.296750000000010     54.690749999999994     50.459750000000000
H      46.956550000000000     40.379249999999999     47.799650000000000
H      50.703550000000000     55.620750000000001     46.747149999999991
H      43.890350000000005     52.378350000000012     51.622349999999997
H      45.140550000000005     53.304550000000006     52.026150000000001
H      48.470850000000006     52.657650000000004     51.761049999999997
H      47.488550000000004     53.909150000000011     52.206350000000000
H      51.602650000000004     48.951949999999997     43.793650000000000
H      52.634250000000002     48.908649999999994     44.975650000000002
H      44.928649999999998     42.545249999999996     50.649549999999991
H      44.453850000000003     40.986649999999997     49.500850000000000
O      43.463550000000005     46.789249999999996     49.894449999999992
O      46.518350000000005     40.906450000000007     48.345050000000001
O      50.489650000000005     54.771150000000006     46.406350000000003
