18

C      48.897249999999993     48.297699999999999     47.284949999999988
C      47.537350000000004     47.986199999999997     47.889849999999996
C      48.935350000000000     47.159499999999994     46.413149999999995
C      46.299949999999995     47.632300000000001     47.213949999999997
C      49.722949999999997     49.231999999999999     47.998850000000004
C      47.144849999999998     48.411500000000004     49.166449999999998
C      47.851649999999999     46.551800000000000     45.740649999999995
C      46.479849999999999     46.886799999999994     46.034649999999999
C      49.229250000000000     49.528700000000001     49.293749999999989
C      48.132549999999995     49.071799999999996     49.941649999999996
H      49.948949999999996     47.022800000000004     46.040149999999997
H      45.178049999999999     47.776700000000005     47.382849999999991
H      50.821950000000001     49.486599999999996     47.610049999999987
H      46.072949999999999     48.232200000000006     49.385249999999999
H      47.958449999999999     45.878000000000000     44.947249999999997
H      45.768749999999997     46.658299999999997     45.288249999999998
H      50.071749999999994     50.122000000000000     49.865049999999997
H      48.082949999999997     49.581199999999995     51.052750000000003
