6

C      48.158949999999990     47.381399999999999     47.834049999999991
C      47.719050000000003     48.453399999999995     48.201149999999998
H      48.743450000000003     47.523199999999996     46.860550000000003
H      47.576450000000001     46.564100000000003     47.239450000000005
H      47.941150000000000     49.435899999999997     47.602450000000005
H      47.256549999999997     48.539999999999999     49.139449999999997
