18

C      48.211049999999993     48.299849999999992     48.141764999999992
C      47.734449999999995     47.367249999999999     47.149304999999998
C      49.548649999999995     48.847050000000003     48.433945000000001
C      48.854950000000002     46.903350000000003     46.338765000000002
C      47.445949999999996     48.601450000000007     49.279195000000009
C      46.395049999999998     46.845649999999999     47.332735000000000
C      50.585949999999997     48.271450000000002     47.754244999999997
C      50.077649999999998     47.273750000000000     46.773784999999997
C      46.062249999999999     48.187850000000005     49.389524999999999
C      45.592250000000000     47.354250000000000     48.397635000000001
H      49.670450000000002     49.755249999999997     49.216344999999997
H      49.020949999999999     46.244750000000003     45.413485000000001
H      47.726849999999999     48.912649999999992     50.435625000000002
H      45.955749999999995     46.773350000000001     46.295195000000000
H      51.492750000000001     48.847149999999992     47.866035000000004
H      50.932850000000002     47.194450000000003     45.983575000000002
H      45.656149999999997     48.473649999999999     50.586514999999999
H      44.507249999999999     47.404550000000000     48.265985000000001
