18

C      47.801099999999998     48.332249999999988     48.928899999999999
C      48.700199999999995     47.721850000000003     47.931900000000006
C      48.007099999999994     49.720650000000006     49.095800000000004
C      49.313000000000002     48.691749999999999     46.984500000000004
C      46.889399999999995     47.445049999999995     49.514599999999994
C      48.359899999999996     46.453249999999997     47.099300000000007
C      47.939999999999998     50.408850000000001     47.784299999999995
C      49.164699999999996     50.028649999999999     46.990599999999993
C      46.712000000000003     46.276049999999998     48.807700000000004
C      47.272300000000001     45.701149999999998     47.562000000000005
H      47.671599999999998     50.282650000000004     49.928500000000007
H      50.162300000000002     48.340350000000001     46.225699999999996
H      46.173199999999994     47.849149999999995     50.066399999999994
H      48.233400000000003     46.360349999999997     45.933600000000006
H      47.201800000000006     51.283950000000004     47.265200000000000
H      49.289600000000007     50.952250000000006     46.319099999999999
H      45.837699999999998     45.751649999999998     49.244300000000003
H      47.015600000000006     44.716049999999996     47.304300000000005
