18

C      48.360199999999999     48.270199999999996     47.381749999999997
C      47.573200000000000     47.667400000000001     48.673150000000000
C      49.683899999999994     48.239600000000003     47.006950000000003
C      48.647599999999997     46.876500000000000     49.261749999999999
C      47.651600000000002     49.333900000000000     46.781350000000003
C      46.218699999999998     47.435400000000001     48.724550000000001
C      50.534400000000005     47.426800000000000     47.877649999999996
C      49.905699999999996     46.445100000000004     48.722250000000010
C      46.161900000000003     49.352300000000000     46.964550000000003
C      45.538300000000007     48.366300000000010     47.777449999999995
H      50.041300000000007     48.710899999999995     46.133250000000004
H      48.666499999999999     46.314399999999999     50.237349999999999
H      48.037300000000002     49.419300000000007     45.762650000000001
H      45.744100000000003     46.794300000000000     49.524850000000008
H      51.500900000000001     47.470700000000001     47.589350000000003
H      50.716300000000004     45.800300000000000     49.088250000000009
H      45.409199999999998     50.199700000000000     47.009350000000005
H      44.499099999999999     48.531700000000001     47.748650000000005
