6

C      47.570569999999989     48.499899999999990     48.111644999999996
C      48.115680000000012     47.397900000000000     47.794944999999998
H      47.295079999999999     48.698200000000000     49.208455000000001
H      47.882480000000001     49.430700000000002     47.415154999999999
H      48.704920000000001     47.373799999999996     46.791544999999999
H      47.871970000000005     46.569299999999998     48.443944999999999
