18

C      47.857599999999984     48.295449999999995     48.296299999999995
C      49.085899999999995     47.679050000000004     47.712400000000002
C      47.321299999999994     49.490549999999999     47.998100000000008
C      49.617699999999999     48.278050000000007     46.483100000000007
C      47.001399999999990     47.633250000000004     49.253800000000005
C      49.200599999999994     46.250150000000005     47.739900000000006
C      47.960399999999993     50.236150000000009     47.013900000000007
C      49.190100000000001     49.648650000000004     46.369200000000006
C      47.605099999999993     46.431050000000006     49.566800000000001
C      48.730399999999989     45.647750000000002     48.876500000000007
H      46.361300000000000     49.878250000000008     48.421500000000009
H      49.927700000000002     47.493550000000006     45.850999999999999
H      45.873300000000000     48.015950000000004     49.459400000000002
H      49.802799999999991     45.691350000000000     47.037199999999999
H      47.647199999999998     51.327849999999998     46.912000000000006
H      50.126700000000000     50.260750000000002     45.869600000000005
H      47.195499999999996     45.691450000000003     50.149000000000001
H      49.097699999999989     44.672150000000002     48.665900000000008
