18

C      47.498449999999991     47.795249999999996     47.596799999999988
C      48.585049999999988     48.785249999999998     47.879100000000001
C      47.276949999999999     46.898249999999997     46.458199999999998
C      49.307850000000009     49.149750000000004     46.668399999999998
C      46.612749999999998     47.495049999999999     48.679200000000002
C      48.736250000000005     49.461050000000007     49.205800000000004
C      48.325150000000001     47.082150000000006     45.567299999999996
C      49.381949999999996     48.171349999999997     45.681699999999999
C      46.842349999999996     47.955450000000006     49.940599999999996
C      47.967649999999999     48.750149999999998     50.146799999999999
H      46.581249999999997     45.909349999999996     46.474199999999996
H      49.854149999999997     50.090650000000004     46.715100000000000
H      45.812649999999998     46.674050000000001     48.517099999999999
H      49.815349999999988     49.987450000000003     49.265299999999989
H      48.732549999999996     46.548150000000000     44.795200000000001
H      50.187350000000002     48.265949999999997     44.855499999999999
H      46.075650000000003     47.846750000000007     50.732199999999999
H      48.436050000000002     49.001650000000005     51.204799999999999
