18

C      48.633149999999986     48.001899999999992     47.763662999999994
C      47.327150000000003     47.878599999999999     48.194319999999998
C      49.773150000000001     47.677999999999997     48.599899999999998
C      46.921250000000001     47.454599999999999     49.463799999999999
C      48.827150000000003     48.376500000000000     46.439819999999997
C      46.188450000000003     48.077500000000008     47.365917000000003
C      49.351950000000002     47.525399999999998     49.938260000000000
C      48.022949999999994     47.330199999999998     50.400699999999993
C      47.781750000000002     48.766199999999991     45.609020000000022
C      46.378950000000003     48.613499999999995     46.094819999999991
H      50.926950000000005     47.713299999999997     48.284360000000000
H      45.886949999999999     47.280999999999999     49.307180000000010
H      49.760450000000006     48.589700000000001     46.056920000000012
H      45.073049999999995     47.590200000000003     47.788981000000000
H      50.201050000000009     47.479599999999998     50.532000000000004
H      47.929450000000003     46.943300000000001     51.445779999999992
H      47.851050000000001     49.056699999999999     44.554220000000008
H      45.614249999999998     48.771200000000000     45.258920000000018
