21

C      45.340449999999990     48.238399999999999     46.635999999999989
C      47.852250000000012     47.833799999999997     47.471000000000004
C      48.985649999999993     48.305099999999996     48.244000000000000
C      48.019449999999992     46.563500000000005     46.837999999999994
C      50.328150000000008     47.773399999999995     48.117400000000004
C      46.506950000000003     48.497399999999999     47.606600000000000
C      48.825550000000007     49.247000000000000     49.347600000000000
C      49.354750000000010     46.172399999999996     46.493700000000004
C      50.484650000000002     46.870699999999999     47.081400000000002
C      46.623350000000002     49.647800000000004     48.396699999999996
C      47.649050000000003     49.897099999999995     49.476399999999998
H      44.547449999999998     48.086500000000001     47.250100000000003
H      45.465149999999994     47.092100000000002     46.101600000000005
H      44.873850000000004     48.953999999999994     45.760400000000004
H      47.162149999999997     45.858999999999995     46.581800000000001
H      51.339550000000003     48.108500000000006     48.400800000000004
H      45.632049999999992     50.215699999999998     48.457899999999995
H      49.689350000000005     49.388800000000003     50.036400000000000
H      49.592050000000000     45.352800000000002     46.142099999999999
H      51.452550000000002     46.714900000000000     46.691500000000005
H      47.651850000000010     50.647199999999998     50.239599999999996
