6

C      47.802500000000002     48.668799999999990     47.901299999999992
C      47.935000000000002     47.267000000000003     47.525799999999997
H      47.682500000000005     49.228699999999996     47.014400000000002
H      48.116300000000010     48.950300000000006     48.985599999999998
H      46.994100000000003     46.771300000000004     47.881099999999996
H      49.005899999999997     46.872099999999996     47.393499999999996
