18

C      47.875817999999995     48.151799999999994     46.950299999999991
C      48.691548000000004     48.006599999999999     48.165999999999997
C      46.834518000000003     47.295200000000001     46.545800000000000
C      48.404768000000011     46.797800000000002     48.947799999999987
C      47.212068000000002     49.449099999999994     46.863599999999991
C      49.494678000000000     48.869099999999996     48.854699999999994
C      46.797518000000004     46.020000000000003     46.966199999999986
C      47.656528000000002     45.909699999999994     48.183799999999991
C      47.907208000000004     50.300999999999995     47.717499999999987
C      49.356338000000001     50.179499999999997     48.239499999999992
H      45.906302000000004     47.600100000000005     46.217900000000000
H      48.977518000000011     46.632600000000004     49.782100000000000
H      46.267028000000003     49.654900000000005     46.461799999999997
H      50.093697999999996     48.449700000000000     49.642099999999999
H      46.016369000000005     45.246599999999994     46.762899999999988
H      47.282548000000006     44.716400000000000     48.544100000000000
H      47.475488000000006     51.283600000000000     47.634499999999989
H      50.027598000000005     51.077400000000004     48.413899999999998
