18

C      47.213749999999997     47.641049999999993     47.524699999999989
C      48.368150000000000     47.413249999999991     48.409300000000002
C      46.340150000000008     48.705849999999984     47.831999999999994
C      48.098050000000001     47.926749999999998     49.759100000000004
C      47.249750000000006     46.867549999999994     46.369999999999997
C      49.598349999999996     46.730149999999995     48.109599999999993
C      46.736950000000007     49.665949999999995     48.711200000000005
C      47.267949999999999     49.009049999999988     49.917399999999986
C      48.414550000000006     46.137349999999998     45.993699999999997
C      49.563350000000000     46.026150000000001     46.877999999999993
H      45.496949999999998     49.084849999999989     47.117799999999995
H      48.756650000000008     47.645849999999996     50.689699999999995
H      46.527050000000003     46.888350000000003     45.379399999999997
H      50.381650000000008     46.613050000000001     48.870500000000007
H      46.215450000000004     50.524050000000003     49.039900000000003
H      47.094549999999998     49.531549999999996     50.961200000000005
H      48.190950000000001     45.475949999999997     45.038799999999995
H      50.503050000000002     45.712549999999993     46.391999999999996
