5

C      47.856627499999995     47.669199999999996     48.287849999999992
H      48.920237499999999     47.538300000000007     48.280049999999996
H      47.983347500000001     48.748300000000000     48.502249999999997
H      47.079762500000001     47.251700000000000     48.843550000000000
H      47.791447499999997     47.797800000000009     47.156450000000000
