6

C      48.383549999999985     48.328699999999991     48.140299999999996
C      47.410550000000001     47.536000000000001     47.744100000000003
H      49.349450000000004     48.707999999999998     47.401000000000003
H      48.225949999999997     48.715800000000002     49.456600000000002
H      46.650549999999996     47.296199999999999     48.522400000000005
H      47.146950000000004     47.284199999999998     46.543399999999998
