18

C      48.259149999999984     48.407299999999992     47.660899999999991
C      47.538749999999993     48.168799999999997     48.834400000000002
C      48.953850000000003     49.498199999999997     47.353400000000001
C      47.068049999999999     49.180599999999991     49.749199999999988
C      48.012950000000004     47.286799999999999     46.723699999999994
C      47.012450000000001     46.955500000000001     49.302000000000007
C      48.950850000000003     50.371800000000000     48.475699999999996
C      48.037350000000004     50.126100000000001     49.563399999999994
C      47.568749999999994     45.968100000000000     47.079400000000000
C      47.068049999999999     45.855899999999998     48.387999999999991
H      49.681150000000002     49.624999999999993     46.503099999999996
H      46.224450000000004     49.138500000000001     50.458900000000000
H      47.864850000000004     47.466099999999997     45.541100000000000
H      46.518249999999995     46.948700000000002     50.396799999999999
H      49.775549999999996     51.072099999999999     48.589499999999987
H      48.168750000000003     50.875799999999991     50.179299999999998
H      47.257049999999992     45.351100000000002     46.276199999999996
H      46.859250000000003     44.927900000000001     48.844800000000006
