18

C      47.813649999999996     47.318399999999990     47.587699999999998
C      48.212149999999994     48.810400000000001     47.669900000000005
C      48.748549999999994     46.462600000000002     48.073700000000009
C      49.552049999999994     49.086399999999998     47.729300000000002
C      46.450249999999997     47.256500000000003     47.198600000000006
C      47.179549999999992     49.831400000000002     47.760600000000004
C      49.997049999999987     47.041699999999999     48.632300000000008
C      50.510049999999993     48.320999999999998     48.332799999999999
C      45.449249999999992     48.178600000000003     47.280100000000012
C      45.802449999999993     49.616600000000005     47.500700000000002
H      48.649149999999992     45.409199999999998     47.971400000000010
H      49.881149999999991     50.174999999999997     47.459099999999999
H      46.510049999999993     46.096100000000000     47.237200000000009
H      47.576149999999998     50.590800000000002     48.433399999999999
H      50.572149999999993     46.243600000000001     48.956099999999999
H      51.557649999999995     48.492400000000004     48.428600000000010
H      44.442350000000005     47.807800000000000     47.043900000000001
H      45.259950000000003     50.434399999999997     47.333700000000000
