18

C      48.091999999999992     47.423099999999991     47.558314999999979
C      47.698729999999998     48.108499999999992     48.842414999999995
C      47.104689999999998     47.261699999999990     46.437314999999991
C      46.465329999999994     48.824799999999996     48.881014999999998
C      49.356690000000000     47.579999999999984     47.069514999999988
C      48.774670000000000     48.430099999999996     49.644753000000001
C      45.759209999999996     47.593400000000003     46.831914999999988
C      45.444339999999997     48.498199999999983     47.888214999999995
C      50.300659999999993     47.813000000000002     48.063014999999986
C      50.075879999999998     47.878399999999999     49.477277999999991
H      47.038370000000000     46.795800000000000     45.362214999999999
H      46.376860000000001     49.204200000000000     49.949663000000008
H      49.740650000000002     47.442899999999995     45.921114999999993
H      48.495120000000000     48.872099999999989     50.637785000000001
H      44.968979999999995     47.033599999999993     46.178614999999986
H      44.550460000000001     48.763399999999990     48.207114999999995
H      51.449539999999999     47.833699999999993     47.842115000000000
H      50.938909999999993     48.168700000000001     50.087547999999991
