6

C      48.121849999999995     48.009249999999987     48.686699999999995
C      47.976350000000004     47.572649999999996     47.376000000000005
H      49.021650000000001     48.006649999999993     49.204499999999996
H      47.256350000000005     48.461749999999995     49.314999999999998
H      48.684450000000005     47.703950000000006     46.685000000000002
H      46.978349999999999     47.538250000000005     47.104299999999995
