6

C      48.436899999999994     48.402799999999992     48.211599999999997
C      47.316000000000003     47.680599999999998     47.934300000000007
H      49.396699999999996     47.978999999999999     48.527000000000001
H      46.603300000000004     48.434600000000003     47.472999999999999
H      47.089100000000002     46.686499999999995     48.173200000000008
H      48.863700000000009     49.313500000000005     47.655900000000003
