45

C      48.951650000000001     46.700999999999993     47.682349999999985
C      48.349150000000002     47.091100000000012     48.882450000000006
C      48.598850000000006     51.464700000000008     46.482450000000000
C      48.923049999999996     47.828100000000006     46.564750000000004
C      47.562549999999995     48.500900000000001     48.840450000000004
C      48.815450000000006     50.243000000000009     45.810950000000005
C      48.664149999999999     49.136400000000009     46.721050000000005
C      47.679849999999995     49.398300000000006     47.712850000000003
C      49.407450000000004     45.424000000000007     47.515649999999994
C      49.504550000000002     44.553799999999995     48.637450000000001
C      48.822650000000003     44.928100000000001     49.751649999999998
C      48.096150000000002     46.277299999999997     49.883750000000006
C      48.836850000000005     47.337100000000007     45.195949999999996
C      48.991549999999997     46.892800000000008     43.919650000000004
C      50.177349999999997     45.043199999999999     46.236149999999995
C      46.553750000000001     48.988399999999999     49.650149999999996
C      47.439550000000004     46.437399999999997     51.262950000000004
C      49.613850000000006     51.993500000000012     47.127750000000006
C      49.663850000000004     50.138999999999996     44.918250000000000
C      49.003549999999997     44.231700000000004     51.073650000000001
C      46.394250000000007     45.503200000000007     51.364249999999998
C      45.552250000000008     49.164100000000005     50.419950000000000
C      47.859950000000005     47.450800000000015     52.337450000000004
H      46.961350000000003     50.293300000000002     47.844049999999996
H      49.697049999999997     46.047300000000007     43.940250000000006
H      49.286849999999994     50.200900000000004     43.838149999999999
H      48.502950000000006     47.401900000000012     43.213449999999995
H      49.745250000000006     45.373599999999996     45.370549999999994
H      50.288950000000007     44.061300000000003     45.948049999999995
H      50.971250000000005     45.771400000000000     46.226950000000002
H      50.403749999999995     51.128000000000000     46.983050000000006
H      47.656849999999999     51.828299999999999     46.079449999999994
H      50.719950000000004     50.271100000000004     44.981150000000000
H      49.930749999999996     43.718100000000007     51.366349999999997
H      50.899949999999997     42.960899999999995     49.215750000000000
H      46.151850000000003     44.814700000000002     50.649349999999998
H      45.446249999999999     45.459400000000002     52.179450000000003
H      48.478349999999999     48.377200000000002     51.466849999999994
H      45.028749999999995     50.194299999999998     50.362849999999995
H      46.908449999999995     47.356400000000008     52.767949999999999
H      48.830549999999995     46.625500000000002     52.786550000000005
H      49.657850000000003     53.039100000000005     47.638350000000003
H      45.841050000000003     49.050200000000004     51.406549999999996
O      48.002450000000003     44.078900000000004     51.778949999999995
O      50.325849999999996     43.438900000000004     48.494550000000004
