18

C      47.317449999999994     48.284599999999998     47.710899999999995
C      48.604549999999996     47.543299999999995     47.680800000000005
C      47.138950000000001     49.545799999999993     48.527400000000014
C      49.859450000000002     48.242699999999992     48.192100000000011
C      46.158549999999998     47.893999999999998     47.086100000000002
C      48.638150000000003     46.351899999999993     47.013400000000004
C      48.224449999999997     49.936500000000002     48.994600000000005
C      49.328849999999996     49.052600000000005     49.314200000000000
C      46.159450000000000     46.541099999999993     46.475200000000001
C      47.412050000000001     45.997899999999994     46.388400000000004
H      46.325150000000001     50.118400000000001     48.474100000000007
H      50.121149999999993     49.282499999999992     50.059899999999999
H      45.294350000000001     48.514500000000005     47.328800000000001
H      49.611049999999999     45.877999999999993     47.056600000000003
H      48.386850000000003     50.988800000000005     49.389600000000002
H      50.813049999999997     47.519299999999994     48.051100000000019
H      45.186950000000003     45.998299999999993     46.248300000000000
H      47.355449999999998     45.011199999999995     45.940100000000001
