18

C      48.191799999999994     48.405149999999992     48.602249999999991
C      48.243700000000004     47.321149999999996     47.603449999999995
C      49.231800000000007     49.380649999999996     48.621150000000000
C      49.192000000000007     47.299050000000001     46.612250000000003
C      47.125699999999995     48.242049999999999     49.516649999999998
C      47.134200000000007     46.152650000000001     47.564949999999996
C      49.981899999999996     49.572150000000001     47.315649999999998
C      50.082599999999999     48.355950000000000     46.536349999999999
C      45.967799999999997     47.587049999999998     49.359949999999998
C      46.166100000000000     46.447150000000001     48.376750000000001
H      49.674199999999999     49.954749999999997     49.628950000000003
H      49.365200000000002     46.278050000000000     46.170749999999998
H      47.204999999999998     49.175649999999997     50.224450000000004
H      47.298699999999997     45.423049999999996     46.831649999999996
H      49.833100000000002     50.576950000000004     46.690249999999999
H      50.931100000000001     48.101750000000003     45.775549999999996
H      45.068899999999999     47.858550000000001     49.805849999999992
H      45.275800000000004     45.848250000000000     48.440349999999995
