18

C      46.613299999999995     48.464379999999991     48.468899999999998
C      47.363300000000002     49.732880000000009     48.349000000000004
C      48.097999999999992     49.754780000000011     47.131600000000006
C      48.500300000000003     48.497180000000000     46.489500000000007
C      47.887000000000008     47.314480000000003     46.763400000000004
C      46.979199999999999     47.302480000000003     47.803100000000008
C      49.617899999999999     48.679379999999995     45.512800000000006
C      46.237200000000001     46.518780000000007     50.846400000000003
H      47.286600000000000     50.994280000000003     48.442400000000006
H      48.260500000000000     50.777379999999994     46.633300000000006
H      46.412900000000000     46.386279999999999     48.119000000000007
H      50.517699999999998     47.882279999999994     45.584800000000008
H      47.532999999999994     45.426280000000006     45.831200000000003
H      47.824300000000001     45.005719999999997     51.121099999999998
N      47.166500000000006     45.791780000000003     50.776300000000006
O      49.705199999999998     49.715580000000003     44.878900000000002
O      48.082900000000002     46.347980000000007     45.820700000000002
S      45.482300000000002     48.181979999999996     49.802700000000009
