18

C      47.307929999999999     48.454034999999990     48.261949999999999
C      48.662429999999986     48.765584999999994     48.689450000000001
C      46.641829999999999     49.127504999999992     47.226050000000008
C      49.343519000000001     49.867955000000002     47.998750000000008
C      46.548029999999997     47.191264999999994     48.882650000000005
C      49.368044999999995     47.915454999999994     49.577050000000007
C      47.562729999999988     49.905085000000007     46.427650000000007
C      48.787929999999989     50.367854999999999     46.910050000000005
C      47.475929999999991     46.282764999999998     49.330850000000005
C      48.742029999999986     46.827434999999994     49.885350000000010
H      45.668929999999989     48.870764999999999     46.845150000000011
H      50.387370000000004     50.310354999999994     48.250250000000001
H      45.612629999999996     46.931534999999997     48.684950000000008
H      50.371229999999997     48.318034999999995     49.939250000000008
H      47.010829999999999     50.388284999999989     45.564450000000001
H      49.193168000000000     50.971995000000000     46.124550000000006
H      47.125829999999993     45.028005000000000     49.327350000000003
H      49.103981000000005     45.976524999999995     50.435549999999999
