51

C      47.562649999999991     48.517499999999991     48.519184999999993
C      48.655350000000013     47.821599999999997     49.173974999999999
C      49.395050000000012     45.836399999999998     44.975335000000001
C      47.166650000000004     48.005600000000001     47.196815000000001
C      49.147150000000011     46.503799999999998     48.623004999999992
C      48.025649999999999     46.267699999999998     45.192075000000003
C      49.891249999999999     45.778700000000001     46.300224999999998
C      47.807550000000006     46.759799999999998     46.513835000000000
C      48.741250000000008     45.969999999999999     47.328464999999994
C      46.925150000000002     49.575699999999998     49.132424999999998
C      47.368150000000000     49.837699999999998     50.552674999999994
C      48.669650000000004     49.341899999999995     50.867674999999991
C      49.327350000000010     48.311099999999996     50.316974999999999
C      45.747550000000004     50.201599999999999     48.502574999999993
C      45.725750000000005     51.565399999999997     50.356274999999997
C      46.808650000000000     51.036699999999996     51.167275000000004
C      45.233950000000007     49.492999999999995     47.413184999999999
C      45.929050000000004     48.403300000000002     46.847965000000002
C      49.300550000000001     49.721400000000003     52.190974999999995
C      50.356850000000009     49.098699999999994     52.842474999999993
C      50.769850000000005     47.927300000000002     52.330974999999995
C      50.262450000000001     47.329599999999999     51.157974999999993
C      47.581249999999997     51.540400000000005     52.083674999999985
C      48.644250000000000     50.924700000000001     52.774275000000003
C      49.961150000000004     45.718699999999998     49.509675000000001
C      50.358150000000009     45.950599999999994     50.782774999999987
C      47.259550000000004     46.941000000000003     44.033424999999994
C      46.730850000000004     46.043099999999995     42.875344999999996
C      49.843150000000009     44.230199999999996     49.187905000000001
C      45.191749999999999     46.620499999999993     42.696874999999991
H      50.830750000000009     43.910499999999999     48.682124999999999
H      49.873150000000010     45.261799999999994     44.048024999999996
H      50.941450000000017     45.686999999999998     46.431515000000005
H      45.425150000000002     52.423699999999997     50.963874999999987
H      44.288950000000000     50.033299999999997     47.069585000000004
H      45.576050000000009     47.739699999999999     46.113195000000005
H      51.711050000000000     47.333299999999994     52.590874999999997
H      47.159850000000006     52.480400000000003     52.379674999999992
H      48.866650000000007     51.541100000000000     53.821874999999991
H      50.706950000000006     45.173199999999994     51.468175000000002
H      47.261550000000000     46.097299999999997     41.862534999999994
H      46.739950000000007     45.037499999999994     43.400205000000000
H      50.043149999999997     49.928700000000006     54.416274999999999
H      49.689750000000004     43.519599999999997     50.111274999999992
H      49.061150000000012     44.054599999999994     48.540014999999997
H      45.146349999999998     46.844399999999993     41.583725000000001
H      45.233550000000008     47.703499999999998     43.156125000000003
H      44.721950000000007     46.030900000000003     43.562584999999999
N      45.201350000000005     51.244199999999992     49.178645000000003
O      47.699650000000005     48.005299999999998     43.754474999999999
O      50.812950000000015     49.503299999999996     54.066175000000001
