18

C      47.478399999999986     47.319549999999992     47.694249999999997
C      48.721299999999999     47.981350000000006     48.299450000000000
C      46.362200000000001     47.189549999999997     48.543349999999997
C      48.481899999999996     48.555950000000010     49.522550000000003
C      47.771899999999988     46.928550000000001     46.355450000000005
C      49.934199999999990     48.302050000000008     47.525950000000002
C      46.276499999999999     47.681550000000016     49.897650000000006
C      47.318100000000001     48.447350000000000     50.334550000000000
C      48.902000000000001     47.223350000000011     45.547250000000005
C      49.953299999999999     47.904650000000004     46.284050000000001
H      45.713499999999996     46.619950000000003     47.856450000000002
H      49.154799999999994     49.559449999999998     49.791450000000005
H      46.769899999999993     46.440550000000002     46.005650000000003
H      50.726299999999995     48.948950000000011     47.991550000000004
H      45.139099999999999     47.753750000000011     50.293450000000000
H      47.081399999999988     49.087850000000017     51.418849999999999
H      48.683999999999997     47.311750000000004     44.581150000000001
H      50.860900000000001     48.156850000000006     45.826850000000000
