5

C      49.056499999999993     48.144799999999996     47.938254999999998
C      47.789500000000004     47.693299999999994     48.221705000000000
H      49.181799999999996     48.578000000000003     46.998415000000008
H      47.157399999999996     48.054999999999993     49.001584999999992
H      46.818200000000004     47.421999999999997     47.607335000000006
