18

C      48.517799999999994     48.212999999999994     47.523649999999989
C      47.950900000000011     48.542099999999998     48.753650000000000
C      49.490700000000011     47.142500000000005     47.505749999999999
C      48.257100000000001     47.931300000000000     50.016449999999999
C      48.039400000000008     48.658099999999997     46.292250000000003
C      46.780200000000001     49.475299999999997     48.675450000000005
C      50.005200000000009     46.419800000000002     48.456750000000007
C      49.378599999999999     46.927299999999995     49.805349999999997
C      46.988100000000010     49.603299999999997     46.087750000000007
C      46.450700000000005     50.013100000000001     47.470350000000003
H      49.735500000000009     46.729199999999999     46.538950000000007
H      47.538500000000006     47.938099999999999     50.813049999999997
H      48.590400000000010     48.309400000000004     45.368450000000003
H      46.080800000000004     49.603400000000001     49.466349999999998
H      50.590499999999999     45.534399999999998     48.267550000000007
H      49.911200000000001     46.770900000000005     50.648249999999997
H      46.722700000000010     50.237699999999997     45.186950000000003
H      45.409500000000001     50.465600000000002     47.350749999999998
