45

C      44.498449999999998     48.903149999999997     51.658399999999986
C      48.847950000000012     47.870650000000005     46.962899999999991
C      50.120250000000006     47.523050000000005     46.245099999999994
C      51.099550000000008     45.374550000000006     50.254999999999995
C      48.389750000000006     47.200750000000006     48.251700000000000
C      51.238050000000001     46.872350000000004     46.830599999999990
C      49.788950000000000     45.886050000000004     50.138800000000003
C      51.689550000000004     45.662250000000007     48.895200000000003
C      49.446150000000003     46.470350000000003     48.901200000000003
C      50.745149999999995     46.401650000000004     48.118499999999997
C      47.960850000000008     48.982650000000000     46.722799999999992
C      48.167850000000001     49.600050000000003     45.468400000000003
C      49.196050000000000     49.165650000000007     44.564499999999995
C      49.989450000000005     48.053950000000007     44.887000000000000
C      46.719550000000005     49.400150000000004     47.503599999999992
C      45.905950000000004     50.313250000000004     46.772799999999989
C      46.203150000000008     51.114150000000002     45.604999999999990
C      47.440350000000009     50.715949999999999     44.933599999999998
C      47.208449999999999     47.461850000000005     49.037700000000001
C      46.402150000000006     48.572550000000000     48.687899999999999
C      45.795250000000010     49.170850000000002     49.906999999999996
C      44.339350000000003     48.948950000000004     50.228299999999990
C      48.786250000000010     45.842450000000007     51.350099999999998
C      47.566550000000007     44.784750000000003     51.456099999999992
H      48.124549999999999     46.798750000000005     51.294899999999998
H      44.976050000000001     49.832349999999998     52.241300000000010
H      45.002950000000013     47.862550000000006     51.597999999999999
H      43.486350000000002     48.746550000000006     51.932299999999998
H      51.450749999999999     44.896850000000008     51.110399999999998
H      49.161150000000006     49.538950000000007     43.580199999999991
H      50.899050000000003     47.659250000000007     44.153899999999993
H      44.785250000000005     50.402149999999999     47.136499999999998
H      45.526150000000001     52.035350000000001     45.317799999999991
H      47.560750000000006     50.999550000000006     43.855699999999999
H      47.039349999999999     46.797550000000001     49.925299999999993
H      43.937950000000001     47.759149999999998     50.109799999999993
H      43.648750000000007     49.573550000000004     49.834899999999990
H      52.232849999999999     45.237650000000002     46.435999999999993
H      52.513649999999998     45.151650000000004     48.397999999999996
H      49.168850000000006     46.296750000000003     52.419800000000009
H      47.328350000000000     43.964649999999999     52.346199999999996
H      47.172050000000013     44.424150000000004     50.462699999999998
H      46.733450000000005     45.437850000000005     51.730599999999995
O      46.587750000000000     49.730850000000004     50.631399999999999
O      51.975149999999999     46.054350000000007     45.943599999999989
