41

C      52.489734999999996     49.958974999999995     48.639949999999992
C      45.295655000000032     48.580264999999997     48.660550000000001
C      50.518485000000005     50.066185000000004     45.136949999999999
C      46.459855000000012     48.138584999999992     49.240349999999999
C      45.215455000000013     48.931254999999993     47.235250000000001
C      49.288145000000000     49.840985000000003     44.369050000000001
C      47.701798000000004     48.186844999999991     48.496549999999999
C      49.922845000000002     49.172115000000005     46.931950000000001
C      46.536655000000003     48.676914999999994     44.822150000000001
C      46.379255000000022     48.849114999999998     46.298749999999998
C      48.204231000000000     49.195194999999998     44.999050000000004
C      47.560097000000006     48.344705000000005     47.012750000000004
C      48.684545000000000     48.739305000000002     46.195050000000002
C      48.982475000000001     48.286945000000003     49.161349999999999
C      50.112155000000001     48.826594999999998     48.323549999999997
C      43.924854999999994     48.612224999999995     49.421750000000003
C      44.099255000000007     47.245764999999992     50.157950000000000
C      45.085254999999997     47.159414999999996     51.131250000000009
C      46.480755000000002     47.488505000000004     50.664450000000002
C      47.875892000000000     47.543994999999995     51.200350000000000
C      48.976145000000002     48.082804999999993     50.587450000000004
C      43.313955000000007     46.199148999999991     49.624650000000003
C      51.480935000000002     48.659025000000000     48.955950000000001
H      53.042165000000004     49.797564999999992     47.613750000000003
H      53.359345000000005     49.974794999999986     49.386049999999997
H      51.890765000000002     50.964214999999996     48.803049999999999
H      51.240525000000005     50.698734999999999     44.410650000000004
H      44.230255000000007     49.207394999999991     46.984549999999999
H      49.091115000000002     50.716974999999991     43.741849999999999
H      46.465555000000009     47.576554999999999     44.551450000000003
H      45.788455000000020     49.378614999999996     44.252949999999998
H      44.282755000000023     49.404084999999995     50.026850000000010
H      42.903455000000022     48.883735000000001     48.958350000000010
H      50.048165000000004     48.095244999999991     51.274549999999998
H      47.952840999999999     47.210144999999997     52.258150000000001
H      44.908754999999999     46.430381999999994     51.795349999999999
H      42.640654999999995     46.428179000000000     48.781649999999999
H      51.376345000000001     48.532905000000000     50.007849999999991
H      51.984525000000005     47.849615000000000     48.873249999999999
N      50.894335000000005     49.741964999999993     46.386550000000000
O      43.113954999999997     45.035785000000004     50.199150000000003
