18

C      48.782499999999999     47.373049999999992     48.164699999999996
C      48.119599999999998     48.620849999999997     47.826499999999996
C      48.733600000000003     46.993350000000000     49.555999999999997
C      47.020400000000002     48.852449999999997     48.612399999999994
C      49.377900000000004     46.485949999999995     47.135700000000000
C      48.505299999999998     49.273150000000001     46.564300000000003
C      47.622599999999998     47.317050000000002     50.313100000000006
C      46.676600000000001     48.338650000000008     49.935000000000002
C      49.680700000000009     47.133949999999999     45.879400000000004
C      49.052799999999998     48.484749999999998     45.652199999999993
H      49.413699999999999     46.205349999999996     49.885899999999992
H      46.281500000000001     49.560649999999995     48.504199999999997
H      50.105399999999996     45.712150000000001     47.180099999999996
H      48.021700000000003     50.287849999999999     46.004300000000001
H      47.522500000000001     47.030049999999996     51.390100000000004
H      45.873899999999999     48.908249999999995     50.352499999999992
H      50.126100000000001     46.816449999999996     44.876499999999993
H      49.379200000000004     48.964750000000002     44.609899999999996
