18

C      48.277749999999997     47.591799999999992     47.400950000000002
C      48.262850000000000     47.302100000000003     48.796150000000011
C      47.238550000000004     47.824899999999992     46.323350000000005
C      46.978549999999998     46.686500000000002     49.164750000000012
C      49.312350000000002     48.559599999999996     47.097350000000006
C      49.118150000000000     47.661200000000001     49.903350000000003
C      46.032850000000003     47.401199999999996     46.932850000000002
C      45.967350000000003     46.877499999999991     48.250450000000001
C      50.276149999999994     48.909399999999998     48.033450000000002
C      50.319849999999995     48.332999999999991     49.335250000000002
H      47.545950000000005     47.687099999999994     45.284649999999999
H      46.986350000000002     46.356800000000000     50.166950000000000
H      49.705550000000009     48.678999999999995     46.112150000000000
H      48.803650000000005     46.983299999999993     50.715350000000001
H      45.492550000000001     47.121499999999990     46.017850000000010
H      44.717849999999999     46.665299999999995     48.507950000000008
H      51.154850000000003     49.643200000000000     47.919850000000011
H      51.282150000000001     48.535000000000004     49.846650000000011
