5

C      47.914899999999989     48.083599999999997     48.189649999999993
H      48.265500000000003     47.193100000000001     47.823449999999994
H      48.539500000000004     48.806899999999999     48.493350000000007
H      47.460499999999996     48.112200000000001     47.083650000000006
H      47.543199999999999     47.302500000000002     48.916349999999994
