34

C      46.652049999999996     45.982244999999992     50.667549999999991
C      47.726649999999992     50.327895000000012     46.939149999999998
C      49.125749999999996     50.137055000000004     46.557050000000004
C      48.481350000000006     45.710814999999997     47.669849999999997
C      47.054249999999996     49.241084999999998     47.558449999999993
C      49.710449999999994     48.917225000000002     46.246549999999999
C      47.692650000000000     46.728575000000006     48.358050000000006
C      49.346249999999998     46.420325000000005     46.853650000000002
C      47.793850000000006     47.987925000000004     47.599850000000004
C      48.909049999999993     47.815865000000002     46.629649999999998
C      45.624449999999996     49.449754999999996     48.058750000000003
C      47.881749999999997     46.427745000000016     49.850250000000003
C      48.750950000000003     44.215805000000003     47.834249999999997
C      45.058449999999993     48.743814999999998     48.907449999999997
C      51.031449999999992     48.767755000000008     45.490949999999998
C      47.087750000000000     51.662895000000006     46.763450000000006
H      46.213250000000002     45.143214999999998     50.015450000000001
H      46.983949999999993     45.256695000000008     51.506950000000003
H      50.819450000000003     49.448575000000005     44.493049999999997
H      49.544150000000002     51.350395000000006     46.370050000000006
H      50.290549999999996     46.127994999999999     46.465750000000000
H      45.077650000000006     50.376554999999996     47.979150000000004
H      48.438749999999999     45.537545000000009     49.965950000000007
H      48.144850000000005     43.453405000000004     47.323949999999996
H      47.089950000000002     51.931195000000002     47.778450000000007
H      48.411450000000002     47.158055000000004     50.386949999999999
H      44.208349999999996     48.989585000000005     49.636550000000000
H      51.680449999999993     47.887835000000010     45.366450000000000
H      51.791650000000004     49.262155000000007     45.999750000000006
H      47.645749999999992     52.546594999999996     46.204449999999994
H      46.227750000000000     51.701795000000004     46.146850000000001
H      45.555650000000000     47.812045000000012     48.809650000000005
H      45.876750000000001     46.737265000000008     51.051150000000007
O      49.448149999999998     43.774985000000001     48.725949999999997
