18

C      47.462299999999985     47.158329999999992     48.786799999999999
C      47.975299999999997     48.290540000000000     47.754700000000000
C      47.807399999999994     47.755139999999990     50.089500000000001
C      48.152700000000003     49.557139999999997     48.340299999999999
C      47.554600000000001     45.937469999999998     48.120400000000004
C      47.919899999999991     47.943339999999999     46.407700000000006
C      47.644299999999994     49.111839999999994     50.373800000000003
C      47.543599999999991     50.215640000000000     49.460099999999997
C      47.563899999999997     45.581489999999995     46.813600000000008
C      47.643200000000000     46.652769999999997     45.897300000000001
H      47.799699999999994     47.266179999999999     51.110600000000005
H      48.810899999999997     50.457540000000002     47.871600000000001
H      47.657000000000004     44.949649999999998     48.512200000000007
H      47.855499999999999     49.041939999999990     46.063699999999997
H      47.189100000000003     49.467739999999999     51.300399999999996
H      47.664200000000001     51.385140000000000     49.607900000000001
H      47.746800000000000     44.614860000000000     46.546800000000005
H      47.707999999999991     46.645629999999997     44.699600000000004
