5

C      47.932150000000000     48.080004999999986     48.259599999999992
H      47.105649999999997     48.797025000000005     48.777000000000001
H      47.815550000000002     48.093805000000003     47.222999999999999
H      47.890650000000008     47.202974999999995     48.657399999999996
H      48.894350000000003     48.176834999999997     48.627299999999991
