18

C      47.832799999999999     47.636299999999991     47.376299999999993
C      48.185200000000009     48.520900000000012     48.526600000000002
C      48.808400000000006     46.664200000000008     46.916200000000003
C      49.590299999999999     48.397400000000005     48.851799999999997
C      46.549199999999999     47.554900000000004     46.875599999999999
C      47.031900000000007     49.200000000000003     49.174000000000007
C      50.124300000000005     46.625799999999998     47.366799999999998
C      50.564100000000010     47.546000000000006     48.269900000000007
C      45.631000000000000     48.184800000000010     47.557200000000009
C      45.773800000000008     48.976900000000001     48.768300000000011
H      48.902200000000008     46.011899999999997     45.981700000000004
H      49.902700000000010     49.178400000000011     49.585200000000000
H      46.218699999999998     46.848799999999997     46.142899999999997
H      47.063800000000001     49.988100000000003     50.018299999999996
H      50.852100000000007     46.153100000000009     46.655900000000003
H      51.512400000000000     48.030000000000001     48.361800000000002
H      44.487600000000000     48.455900000000000     47.283000000000001
H      44.823800000000006     49.570800000000006     49.231900000000010
