18

C      48.214949999999995     47.647199999999998     47.225299999999990
C      47.274850000000001     48.211599999999997     48.450200000000002
C      49.623449999999991     47.718300000000006     47.414899999999996
C      47.960149999999999     48.652999999999999     49.571400000000004
C      47.607849999999999     47.198000000000000     46.083599999999997
C      45.950350000000000     48.777800000000006     48.353199999999994
C      50.100049999999996     47.863199999999999     48.829900000000002
C      49.342449999999999     48.247800000000005     49.901400000000002
C      46.269449999999992     47.751700000000007     46.088400000000000
C      45.646749999999997     48.332500000000003     47.019999999999996
H      50.332749999999990     47.276100000000007     46.671199999999999
H      47.586649999999992     49.385600000000004     50.317099999999996
H      48.201349999999991     46.614399999999996     45.232300000000002
H      45.129949999999994     48.924900000000001     49.131499999999996
H      51.411050000000003     47.756700000000002     48.611600000000003
H      49.690550000000002     48.962499999999999     50.767699999999998
H      45.606549999999999     47.594200000000008     45.391500000000001
H      44.588949999999997     48.850200000000008     46.907699999999998
