8

C      47.785050000000005     48.054499999999990     48.704649999999987
C      48.340650000000011     47.552099999999996     47.457749999999997
H      46.886950000000013     49.073800000000006     48.556149999999995
H      46.827050000000000     47.469799999999992     49.216249999999995
H      48.566450000000003     48.403899999999993     49.367550000000001
H      49.172950000000000     46.926199999999994     47.201850000000000
H      48.400050000000007     48.430999999999997     46.632449999999999
H      47.491050000000001     47.079099999999997     46.847850000000001
