18

C      47.789449999999988     47.925749999999994     48.829999999999991
C      48.388349999999996     47.382950000000008     47.578299999999999
C      46.672049999999992     47.227450000000005     49.412899999999993
C      47.536649999999995     46.632050000000007     46.754499999999993
C      48.254949999999994     49.299750000000017     49.274099999999990
C      49.419349999999987     48.104650000000007     46.897199999999998
C      46.231149999999992     46.116650000000007     48.762999999999991
C      46.601349999999996     45.835350000000005     47.471099999999993
C      49.172249999999998     49.936950000000010     48.614599999999996
C      49.878349999999990     49.260649999999998     47.570899999999995
H      46.154049999999991     47.539250000000010     50.168799999999990
H      47.851049999999994     46.153050000000007     45.813099999999991
H      48.151849999999989     49.743450000000010     50.223500000000001
H      49.808749999999996     47.785850000000011     45.776499999999999
H      45.373849999999997     45.591450000000009     49.231399999999994
H      46.242749999999994     45.053550000000001     46.738399999999999
H      49.859049999999996     50.946449999999999     48.889200000000002
H      50.626150000000003     49.853949999999998     47.167199999999994
