18

C      48.582649999999994     48.654899999999998     47.421249999999986
C      48.352750000000000     47.387799999999999     48.173549999999999
C      48.135550000000009     48.953099999999992     46.063849999999995
C      47.778649999999999     46.336699999999993     47.388349999999996
C      48.979450000000000     49.731799999999993     48.248049999999999
C      48.924850000000006     47.373599999999996     49.468950000000000
C      47.074449999999999     48.070300000000003     45.598649999999999
C      47.067950000000010     46.811700000000002     46.242049999999999
C      49.279350000000008     49.738799999999998     49.581649999999989
C      49.252450000000010     48.503199999999993     50.303750000000001
H      48.072150000000008     50.106299999999990     45.936949999999996
H      47.605249999999998     45.257000000000005     47.351549999999996
H      48.904250000000005     50.742999999999995     47.752450000000003
H      49.021650000000008     46.459599999999995     49.896650000000001
H      46.629750000000001     48.223399999999998     44.563150000000000
H      46.393349999999998     46.048699999999997     45.939549999999997
H      49.476349999999996     50.614699999999999     50.222149999999992
H      49.606650000000002     48.463799999999992     51.436850000000000
