21

C      47.928299999999993     48.050949999999993     50.625549999999997
C      48.089000000000006     47.678250000000006     48.260949999999994
C      47.965700000000005     48.207350000000005     46.901650000000004
C      48.416300000000000     46.389650000000003     48.702650000000006
C      48.050500000000007     47.216450000000009     46.003150000000005
C      47.761900000000004     48.713450000000009     49.252749999999992
C      47.865500000000004     49.586350000000010     46.401250000000005
C      48.693300000000001     45.422350000000009     47.751949999999994
C      48.638399999999997     45.970849999999999     46.452349999999996
C      47.197200000000002     49.958350000000010     48.784850000000006
C      47.232300000000002     50.330849999999998     47.382549999999995
H      47.149400000000007     48.616950000000003     51.195949999999996
H      48.949199999999998     47.646150000000006     50.823650000000001
H      47.011000000000003     47.422150000000002     50.292749999999998
H      48.236799999999995     46.101150000000004     49.800349999999995
H      48.042099999999998     47.665050000000008     44.804050000000004
H      48.238999999999997     50.007050000000007     45.525850000000005
H      49.309199999999997     44.552250000000001     48.065449999999998
H      49.071800000000003     45.778450000000007     45.539450000000002
H      46.939100000000003     50.749150000000000     49.513549999999995
H      46.690800000000003     51.447749999999999     47.222350000000006
