25

C      43.964799999999990     47.011199999999988     48.892799999999994
C      45.292600000000007     46.307699999999997     48.969400000000000
C      46.478299999999990     46.886899999999997     48.917499999999997
C      46.426600000000008     48.087299999999999     49.785599999999995
C      45.079400000000007     48.343299999999999     50.316899999999997
C      43.870999999999995     47.891599999999997     49.896599999999999
C      50.000900000000001     49.642799999999994     48.490800000000000
C      50.780000000000001     49.652900000000002     47.321199999999997
C      51.188000000000002     48.437899999999999     46.627800000000001
C      50.266899999999993     47.458299999999994     47.040799999999997
C      49.105199999999996     47.448800000000006     47.919599999999996
C      49.039800000000000     48.656599999999997     48.757899999999999
C      52.477300000000000     48.138500000000008     45.801099999999998
H      43.284900000000000     46.686300000000003     48.243800000000000
H      45.094600000000000     45.346999999999994     48.337400000000002
H      45.260999999999996     49.137400000000000     51.187400000000004
H      42.918599999999998     48.388300000000001     50.106500000000004
H      50.226699999999994     50.653000000000006     49.108899999999998
H      51.278400000000005     50.556600000000003     47.098700000000001
H      50.198000000000000     46.556600000000003     46.230200000000004
H      52.349299999999999     47.678100000000001     44.812599999999996
H      53.081400000000002     47.337000000000003     46.205100000000002
H      53.050399999999996     49.017000000000010     45.802600000000005
S      48.026200000000003     48.927100000000010     50.192000000000000
S      47.952799999999996     46.120199999999997     48.132100000000001
