6

C      47.839199999999991     48.286449999999995     47.582699999999996
C      48.118099999999998     47.551150000000007     48.760700000000000
H      48.512799999999999     49.075950000000006     47.201400000000000
H      46.844799999999992     48.293149999999997     47.078400000000002
H      49.155200000000008     47.187550000000002     48.855599999999995
H      47.326599999999999     46.924049999999994     48.921599999999998
