48

C      51.059699999999992     44.284899999999993     51.540700000000001
C      49.663899999999998     44.156900000000007     51.459400000000009
C      43.786799999999999     44.020600000000002     46.233899999999998
C      51.457200000000000     45.552799999999998     50.712700000000005
C      43.394100000000002     45.113599999999998     45.366100000000010
C      44.967799999999997     44.177700000000002     47.058100000000003
C      48.700200000000002     45.000200000000014     50.926900000000010
C      50.881999999999998     47.495500000000014     49.060000000000009
C      44.563499999999998     47.523999999999994     45.587300000000006
C      50.013100000000001     48.205400000000004     48.348000000000006
C      45.789800000000000     48.204200000000007     45.975500000000004
C      47.755499999999998     48.279000000000003     47.175199999999997
C      50.391799999999996     46.564699999999995     50.111600000000003
C      44.422699999999999     46.138100000000001     45.698900000000002
C      48.576699999999995     47.609800000000014     48.014900000000004
C      46.532999999999994     47.499699999999997     46.944899999999997
C      49.142000000000003     46.113800000000005     50.077300000000001
C      46.888399999999997     45.731800000000007     48.845800000000004
C      45.198200000000000     45.629700000000007     46.938400000000009
C      48.138299999999994     46.510700000000007     48.955599999999997
C      46.149099999999997     46.278700000000001     47.720100000000009
C      50.321199999999997     49.394300000000001     47.528600000000004
C      51.476800000000004     49.225600000000007     46.609800000000000
C      52.658099999999997     50.141000000000012     46.483800000000009
C      50.196599999999997     52.408600000000007     45.703300000000006
C      50.884599999999999     51.884800000000006     44.619599999999998
H      53.140599999999999     51.370100000000001     44.724200000000003
H      51.570000000000000     43.768100000000004     52.297400000000003
H      49.400100000000002     43.043800000000005     51.642400000000002
H      43.250900000000001     42.876700000000007     46.060099999999998
H      42.482700000000001     45.191600000000001     44.764100000000006
H      45.375499999999995     43.845400000000005     48.226900000000008
H      47.634999999999998     44.552200000000006     51.052700000000009
H      51.955099999999995     47.858600000000003     49.246699999999997
H      43.883499999999998     48.166100000000007     44.956600000000002
H      45.852100000000000     49.225800000000000     45.762099999999997
H      50.996600000000001     49.159400000000005     45.539600000000000
H      46.648699999999998     44.563400000000009     48.951500000000003
H      52.020000000000003     48.283400000000007     46.582600000000006
H      48.264699999999998     49.043299999999995     46.502500000000005
H      52.744799999999991     50.657699999999998     47.467199999999998
H      53.517299999999999     49.502800000000001     46.219100000000005
H      50.620399999999997     50.934900000000006     44.136299999999999
H      51.100400000000000     52.591400000000014     43.702599999999997
O      52.372499999999995     51.241700000000002     45.413300000000000
O      49.923200000000001     50.515900000000009     47.783600000000000
O      52.648100000000007     45.467800000000004     50.679800000000007
O      49.742200000000004     53.123299999999993     46.554499999999997
