18

C      48.605399999999989     47.878399999999999     47.885749999999987
C      47.246200000000002     48.438699999999997     47.801149999999993
C      49.560500000000005     48.819599999999994     48.396149999999992
C      46.872600000000006     49.732200000000006     48.185749999999999
C      49.106899999999996     46.646199999999993     47.456649999999996
C      46.436599999999999     47.468199999999996     46.879549999999995
C      49.219899999999996     50.152299999999997     48.851250000000007
C      47.801599999999993     50.405000000000001     49.130849999999995
C      48.105900000000005     45.736300000000000     47.125950000000003
C      46.841300000000004     46.271199999999993     46.648949999999999
H      47.464500000000001     51.314400000000006     49.807850000000002
H      50.667100000000005     48.549700000000001     48.554749999999999
H      46.098500000000001     50.377300000000005     47.710149999999999
H      50.263999999999996     46.198400000000007     47.506450000000001
H      45.332899999999995     47.698400000000007     46.546250000000001
H      49.794600000000003     50.965199999999996     49.451549999999997
H      48.407100000000000     44.685599999999994     46.939449999999994
H      46.338600000000000     45.432199999999995     46.192149999999998
