6

C      47.292199999999994     48.027000000000001     48.487150000000000
C      48.555799999999991     47.942000000000000     47.912449999999993
H      46.803500000000000     48.939399999999999     48.492949999999993
H      46.736800000000002     47.060600000000001     48.616050000000001
H      49.167499999999990     48.744000000000007     47.383949999999999
H      49.263199999999998     47.384400000000007     47.487650000000002
