18

C      47.907099999999993     47.733399999999996     47.450114999999997
C      48.335300000000004     48.298900000000003     48.805924999999988
C      46.598100000000002     47.326200000000000     47.099114999999998
C      47.177599999999998     48.496399999999994     49.725274999999996
C      48.774199999999993     47.662199999999999     46.295694999999995
C      49.740700000000004     48.516800000000003     49.014734999999988
C      45.531300000000002     47.677700000000002     47.919984999999997
C      46.016300000000001     48.187500000000000     49.137095000000002
C      49.993499999999997     48.243600000000001     46.589245000000005
C      50.457799999999992     48.552300000000002     47.802175000000005
H      46.622199999999992     46.866799999999998     45.998075000000000
H      47.470500000000001     48.967900000000000     50.726304999999996
H      48.495899999999992     47.654200000000003     45.273695000000004
H      49.845199999999991     49.133200000000002     50.035925000000006
H      44.421599999999998     47.861800000000002     47.689284999999998
H      45.377899999999997     48.368600000000001     50.126874999999998
H      50.633200000000002     48.468400000000003     45.737634999999997
H      51.578400000000002     48.761500000000005     47.770534999999995
