15

C      46.833749999999995     48.881104999999991     47.860249999999986
C      46.684650000000005     48.219405000000009     46.616550000000004
C      47.808750000000003     47.517205000000004     46.231849999999994
C      48.934150000000002     47.300705000000008     47.129949999999994
C      49.175650000000005     48.212605000000011     48.254249999999999
C      47.879150000000010     48.596805000000003     48.820449999999994
C      47.840350000000001     48.864705000000001     50.301349999999999
H      45.909250000000000     49.403505000000010     48.240750000000006
H      45.761150000000001     48.038705000000007     46.031949999999995
H      47.539550000000006     46.948805000000007     45.185249999999996
H      50.238849999999999     48.405705000000012     48.673150000000007
H      46.884150000000005     48.248105000000010     50.814750000000004
H      48.491150000000005     48.173005000000003     50.800749999999994
H      48.165649999999999     49.933205000000001     50.658850000000001
O      49.209750000000000     46.066794999999999     47.264750000000006
