5

C      48.320949999999989     47.959549999999993     48.068634999999993
H      48.769649999999999     47.350349999999999     47.179164999999998
H      47.139049999999997     48.109150000000000     47.768484999999998
H      48.250950000000003     47.092050000000000     48.820835000000002
H      48.860950000000003     48.907950000000000     48.252865000000000
