49

C      45.153199999999991     47.635849999999991     46.041999999999994
C      52.025599999999997     49.124550000000006     48.656199999999998
C      44.446100000000001     48.317950000000003     46.943100000000001
C      51.310800000000000     48.994350000000004     49.883200000000002
C      46.605199999999996     47.314349999999997     45.890999999999991
C      51.127300000000005     49.065649999999998     47.488699999999994
C      44.495599999999996     49.202549999999995     49.331499999999991
C      49.121300000000005     49.031749999999995     51.189300000000003
C      45.282600000000002     49.569449999999996     50.456999999999994
C      47.785499999999999     49.297550000000008     51.201700000000002
C      48.836799999999997     47.934350000000002     46.902099999999990
C      45.254199999999997     48.679849999999995     48.219899999999996
C      49.846100000000007     49.148850000000003     49.964900000000000
C      46.683400000000006     49.130550000000007     50.218699999999998
C      47.437100000000001     47.975649999999995     46.927300000000002
C      49.679900000000004     48.838850000000001     47.609600000000000
C      46.639899999999997     48.535550000000008     47.981099999999998
C      48.960899999999995     49.164149999999999     48.813699999999997
C      47.543099999999995     48.895350000000001     48.996899999999997
C      44.385300000000001     46.978050000000003     44.994999999999990
C      42.945499999999996     46.782149999999994     44.924099999999996
C      42.294499999999999     47.102750000000007     46.084699999999998
C      43.066500000000005     48.108049999999999     46.900700000000001
C      42.519000000000005     49.161750000000005     47.812899999999999
C      43.067700000000002     49.567450000000001     49.051299999999998
C      53.421199999999999     49.025050000000000     48.576700000000002
C      53.867900000000006     48.512750000000004     49.844700000000003
C      53.203800000000001     48.055050000000001     51.024999999999991
C      51.888499999999993     48.296950000000002     51.014899999999997
C      46.804699999999997     46.618450000000003     44.700199999999995
C      45.349900000000005     46.530449999999995     43.936099999999996
C      47.281999999999996     49.787349999999996     52.531599999999997
H      51.352400000000003     49.147150000000003     46.405000000000001
H      49.747000000000000     49.276350000000001     52.038399999999996
H      45.066000000000003     50.471350000000008     50.987899999999996
H      49.341400000000007     47.594050000000003     46.139600000000002
H      42.306100000000001     46.569350000000007     43.934299999999993
H      41.111500000000007     47.269050000000000     45.969999999999999
H      42.675100000000000     50.517350000000000     49.120099999999994
H      53.922799999999995     49.240450000000003     47.608300000000000
H      54.888499999999993     48.200650000000003     49.581800000000001
H      53.811000000000007     47.383850000000002     51.888599999999997
H      51.293099999999995     47.843550000000000     52.003500000000003
H      45.399400000000000     47.067150000000005     42.796300000000002
H      45.099599999999995     45.482650000000000     43.692799999999991
H      47.849100000000007     46.530650000000001     44.238599999999991
H      47.739300000000000     48.841950000000004     53.203699999999998
H      46.431100000000001     50.215350000000008     52.711799999999997
H      41.868200000000002     50.313549999999999     47.654200000000003
