18

C      48.186299999999996     47.359999999999985     48.092550000000003
C      47.380600000000001     48.570399999999992     48.145450000000004
C      49.614400000000003     47.853799999999993     48.502749999999999
C      47.736599999999996     49.917599999999993     47.966749999999998
C      47.870400000000004     46.019499999999994     48.311950000000003
C      46.039900000000003     48.045000000000002     47.573850000000000
C      49.940799999999996     49.149100000000004     48.674250000000008
C      49.069100000000006     50.245199999999997     48.321350000000002
C      46.606399999999994     45.632499999999993     47.745650000000005
C      45.794399999999996     46.689300000000003     47.342550000000010
H      50.492000000000004     47.135499999999993     48.779450000000004
H      47.042699999999996     50.779800000000009     47.658850000000008
H      48.705100000000002     45.355699999999999     48.346049999999998
H      45.197800000000001     48.903600000000012     47.322450000000011
H      51.114800000000002     49.448999999999998     48.837049999999998
H      49.382700000000000     51.411600000000007     48.758450000000003
H      46.391300000000001     44.588399999999993     47.309350000000002
H      44.885199999999998     46.153300000000002     47.162950000000002
