18

C      48.499799999999993     47.576099999999997     47.835099999999997
C      47.792300000000004     48.566800000000008     48.350999999999999
C      49.687700000000000     47.705100000000009     47.168099999999995
C      48.383299999999998     49.837899999999998     48.172200000000004
C      48.009300000000003     46.248100000000008     48.113100000000003
C      46.553000000000004     48.445300000000010     49.122500000000002
C      50.376399999999997     48.955500000000008     46.890500000000003
C      49.642900000000004     49.920300000000005     47.647800000000004
C      46.676800000000000     46.217400000000005     48.555699999999987
C      45.727100000000000     47.372300000000003     48.876400000000004
H      49.957999999999998     46.663200000000003     46.728999999999999
H      48.014099999999999     50.666000000000004     48.732199999999992
H      48.710599999999992     45.421400000000006     48.397799999999989
H      45.890900000000002     49.248399999999997     49.718299999999999
H      51.176700000000004     49.186799999999998     46.281700000000001
H      49.786999999999999     50.902499999999996     47.670299999999997
H      46.321999999999996     45.097500000000004     48.723600000000005
H      44.823299999999996     47.201800000000006     49.298699999999997
