18

C      47.326999999999991     47.670949999999991     48.426849999999988
C      48.378200000000007     47.287250000000000     47.507550000000002
C      46.656800000000004     48.878650000000007     47.894250000000000
C      48.588800000000006     47.884349999999998     46.198949999999996
C      46.764899999999997     47.128850000000000     49.676250000000003
C      49.406800000000004     46.556749999999994     48.231949999999998
C      46.908000000000001     49.351250000000007     46.615049999999997
C      47.741900000000001     48.732550000000003     45.594850000000001
C      48.047899999999998     46.869550000000004     50.424049999999987
C      49.274699999999996     46.358950000000007     49.636450000000004
H      45.931600000000003     49.498450000000005     48.546549999999989
H      49.308000000000007     47.251350000000002     45.482449999999993
H      45.703699999999998     46.772250000000000     49.919950000000000
H      50.296300000000002     46.095150000000004     47.846049999999998
H      46.218000000000004     50.252949999999998     46.709849999999996
H      47.827900000000000     49.321050000000014     44.474950000000000
H      47.989900000000006     46.606350000000006     51.525050000000000
H      49.523899999999998     45.747050000000002     50.654550000000000
