57

C      49.230144999999979     46.682949999999991     49.137799999999991
C      49.828644999999987     48.037250000000000     49.192999999999998
C      45.866786999999988     48.344650000000001     45.821399999999997
C      46.559944999999985     49.636650000000003     45.519799999999996
C      47.923654999999982     46.513350000000003     48.485299999999995
C      49.151834999999984     48.748350000000002     48.231000000000002
C      46.164880999999987     47.269949999999994     46.697399999999995
C      47.893174999999985     49.528149999999997     46.171999999999997
C      47.212344999999985     47.508350000000007     47.686099999999996
C      48.224594999999987     48.470250000000007     47.285499999999999
C      49.710624999999986     46.115250000000003     50.379899999999992
C      50.496604999999988     46.545550000000006     51.515900000000002
C      51.120794999999980     47.825550000000007     51.441099999999999
C      50.814254999999982     48.524050000000003     50.241199999999992
C      44.809004999999985     48.237650000000002     44.941699999999997
C      44.284704999999995     49.433350000000004     44.399099999999997
C      44.916904999999986     50.572650000000010     43.994199999999999
C      46.123224999999984     50.715450000000004     44.693700000000000
C      48.972094999999989     44.800550000000001     50.507999999999996
C      49.129144999999987     44.161649999999995     51.671700000000001
C      50.006794999999990     44.715549999999993     52.688099999999999
C      50.682154999999987     45.900250000000000     52.784299999999995
C      47.268144999999983     45.287250000000000     48.642099999999999
C      48.153214999999982     44.261449999999996     49.330200000000005
C      49.727894999999982     50.358150000000009     48.086799999999997
C      50.964934999999983     50.294150000000002     48.914999999999999
C      51.732914999999984     49.489649999999997     49.820299999999996
C      45.961060999999987     45.787649999999999     46.422499999999999
C      44.232605000000014     46.910950000000000     44.609800000000000
C      44.220404999999992     51.527349999999998     43.058099999999996
C      44.987505000000006     45.959950000000006     43.875200000000000
C      46.554106999999988     45.022250000000000     47.336799999999997
C      46.823174999999985     52.055350000000004     44.532399999999996
H      48.194494999999982     50.625649999999993     46.532699999999998
H      51.790584999999986     48.041650000000004     52.332200000000000
H      43.348504999999996     49.126050000000006     43.915199999999999
H      48.819144999999985     43.153149999999997     51.933599999999998
H      50.003484999999991     44.130449999999996     53.587199999999996
H      51.155224999999980     46.246250000000003     53.633700000000005
H      47.479984999999985     43.379850000000005     49.609499999999997
H      48.695214999999983     44.247349999999997     48.472200000000001
H      48.879134999999984     50.752949999999998     48.499899999999997
H      48.618964999999989     49.471350000000001     45.343399999999995
H      51.558274999999988     51.142950000000013     48.510999999999996
H      52.787094999999987     49.765249999999995     50.208399999999997
H      46.412992999999986     45.334549999999993     49.371200000000002
H      44.432005000000004     52.634950000000003     42.866099999999996
H      44.248604999999991     45.703649999999996     43.068100000000001
H      46.101239999999983     46.183250000000001     43.824500000000000
H      43.212905000000013     46.949150000000003     44.567699999999995
H      46.193809999999985     43.874449999999996     47.262400000000000
H      45.420004999999996     45.310749999999999     45.589099999999995
H      47.785764999999984     52.321250000000006     45.203399999999995
H      45.986405999999988     52.846850000000003     44.576999999999998
H      47.291914999999989     52.563850000000002     43.567999999999998
H      49.810014999999986     50.645950000000013     47.104299999999995
O      43.358204999999998     51.092950000000002     42.366299999999995
