5

C      47.797399999999996     47.666099999999986     47.834949999999992
H      47.563400000000001     48.740400000000001     47.505450000000003
H      47.619300000000003     47.412299999999995     48.963050000000003
H      47.033700000000003     47.348700000000001     47.036949999999997
H      48.966299999999997     47.259599999999999     47.797249999999998
