18

C      48.164799999999993     47.096549999999993     48.282567999999998
C      47.377299999999998     48.337049999999998     47.813167999999990
C      48.849800000000002     46.507150000000003     47.275167999999994
C      47.275100000000002     48.610149999999997     46.492868000000001
C      48.555900000000001     47.061950000000003     49.753267999999991
C      46.981299999999997     49.241650000000000     48.803367999999992
C      48.590600000000002     46.805050000000001     45.887467999999998
C      47.765799999999999     47.815249999999999     45.434268000000003
C      48.161499999999997     48.008949999999999     50.533767999999995
C      47.417200000000001     49.137149999999998     50.135667999999995
H      49.662599999999998     45.937850000000005     47.496567999999996
H      46.613999999999997     49.484450000000002     46.321767999999992
H      49.167800000000000     46.094249999999995     49.889768000000004
H      46.337400000000002     50.062149999999995     48.570768000000001
H      49.459800000000001     46.584150000000001     45.038867999999994
H      47.908200000000001     48.328749999999999     44.384267999999992
H      48.319800000000001     48.016349999999996     51.615732000000008
H      46.930300000000003     49.910249999999998     51.035442000000003
