18

C      48.400959999999998     48.079349999999991     47.299199999999985
C      47.629980000000003     47.575249999999997     48.429799999999993
C      49.082809999999995     49.286749999999991     47.250200000000000
C      47.591930000000005     48.578049999999998     49.558999999999990
C      48.848680000000002     46.997149999999998     46.332699999999996
C      46.890680000000003     46.490249999999996     48.458800000000004
C      48.376379999999997     50.339449999999992     47.962299999999992
C      48.093760000000003     49.892149999999994     49.323299999999996
C      48.237179999999995     45.657649999999997     46.488999999999997
C      47.123220000000003     45.523750000000000     47.346699999999991
H      49.902339999999995     49.426449999999996     46.617200000000004
H      47.005549999999999     48.492650000000005     50.554099999999998
H      49.299880000000002     47.123149999999995     45.445900000000002
H      46.097660000000005     46.217049999999993     49.090100000000000
H      49.032799999999995     51.227550000000001     48.043399999999998
H      47.582650000000001     50.951249999999995     49.760699999999993
H      48.640630000000002     44.948649999999994     45.732799999999990
H      46.341409999999996     44.772449999999999     47.184599999999996
