18

C      47.582949999999990     47.475699999999989     47.561099999999989
C      48.207549999999998     48.536799999999999     48.379599999999996
C      48.011949999999999     46.052800000000005     47.638099999999994
C      49.161349999999999     48.069000000000003     49.465299999999999
C      46.815249999999999     47.912899999999993     46.507199999999997
C      48.204750000000004     49.904200000000003     48.206599999999995
C      48.949349999999995     45.785200000000003     48.560599999999994
C      49.466549999999998     46.702700000000007     49.642299999999999
C      46.785349999999994     49.305300000000003     46.307299999999998
C      47.687649999999998     50.313299999999998     46.828299999999999
H      47.798649999999995     45.271900000000002     46.831000000000003
H      49.583249999999992     48.776200000000003     50.199900000000000
H      46.198149999999998     47.249899999999997     45.912599999999998
H      48.675049999999999     50.600399999999993     48.804400000000001
H      49.020349999999993     44.643699999999995     48.786999999999999
H      49.801850000000002     46.281300000000002     50.504199999999997
H      46.304549999999999     49.823700000000002     45.495800000000003
H      47.646450000000002     51.356300000000005     46.648799999999994
