9

C      47.795499999999997     47.256749999999990     49.075194999999987
C      48.309100000000015     47.962350000000001     47.848826999999993
C      47.633100000000006     48.670249999999996     47.066585000000003
H      48.528100000000009     46.509050000000002     49.511334999999988
H      46.946800000000003     46.633150000000001     48.881234999999990
H      49.409999999999997     48.007450000000006     47.673879999999990
H      46.953900000000004     48.020750000000007     49.606014999999985
H      48.116000000000007     49.490949999999998     46.393985000000015
H      46.590000000000003     48.617450000000005     46.756484999999984
