6

C      48.208549999999988     48.518774999999998     48.245599999999996
C      47.639449999999997     47.279355000000002     48.159300000000002
H      49.372950000000003     48.762754999999999     48.083399999999997
H      47.460250000000002     49.517314999999996     48.403999999999996
H      48.130750000000006     46.482685000000004     47.596000000000004
H      46.627049999999997     46.799365000000002     48.233499999999992
