18

C      48.148799999999994     48.644874999999992     48.486800000000002
C      47.758899999999997     47.720074999999994     47.454100000000011
C      47.691099999999992     48.290534999999998     49.789000000000001
C      46.879300000000001     46.645854999999997     47.685500000000005
C      49.246700000000004     49.537774999999996     48.137600000000006
C      48.544499999999985     47.685755000000000     46.325000000000003
C      46.693299999999994     47.286735000000000     49.930100000000010
C      46.272899999999993     46.353864999999999     48.921700000000001
C      49.705100000000002     49.667544999999990     46.822800000000001
C      49.668799999999990     48.448104999999998     46.045700000000011
H      48.161899999999989     48.814754999999998     50.704200000000000
H      46.632999999999996     45.631944999999995     47.004700000000000
H      49.343499999999992     50.536005000000003     48.857100000000003
H      48.119900000000001     47.025345000000002     45.710900000000009
H      46.134599999999992     47.402014999999999     50.995099999999994
H      45.781800000000004     45.364435000000000     49.103600000000000
H      50.135499999999993     50.635565000000000     46.551400000000001
H      50.218199999999996     48.383595000000000     45.004900000000006
