18

C      48.023449999999990     48.569199999999995     48.663514999999990
C      48.673850000000002     48.224499999999992     47.526064999999996
C      46.854750000000003     49.315100000000001     48.374244999999995
C      48.833350000000003     48.891399999999990     46.255685000000000
C      47.824449999999999     47.752799999999993     49.906974999999996
C      49.559250000000006     47.049199999999999     47.693545000000000
C      46.888550000000002     50.035399999999996     47.121794999999999
C      47.802849999999999     49.818599999999989     46.057614999999998
C      48.646450000000002     46.631299999999996     49.795294999999996
C      49.370750000000001     46.089299999999994     48.612814999999998
H      46.824150000000003     49.869100000000003     49.315435000000001
H      49.736049999999999     48.905499999999989     45.513855000000000
H      47.250149999999998     47.955399999999997     50.816915000000002
H      49.998750000000001     46.716600000000000     46.755314999999996
H      46.001249999999999     50.892899999999997     47.318754999999996
H      47.778550000000003     50.456599999999995     45.183084999999998
H      48.860250000000001     45.958900000000000     50.791575000000002
H      49.897950000000002     45.107100000000003     48.536584999999995
