18

C      47.396359999999987     48.609849999999994     48.221649999999990
C      48.194860000000006     47.376849999999997     48.092549999999996
C      48.179760000000002     49.759049999999995     47.679149999999993
C      49.680560000000000     47.600950000000005     47.999549999999999
C      45.965559999999996     48.688449999999996     48.271349999999998
C      47.528360000000006     46.118050000000004     47.977449999999997
C      49.547860000000000     50.034349999999996     47.920249999999996
C      50.356059999999999     48.869549999999997     48.015949999999997
C      45.436660000000003     47.434149999999995     48.115849999999995
C      46.149760000000001     46.158149999999999     48.209949999999999
H      47.345060000000004     50.395450000000004     47.317549999999997
H      50.413759999999996     46.756750000000004     48.381249999999994
H      45.405360000000002     49.834150000000001     48.328050000000005
H      48.167760000000001     45.131149999999998     47.927849999999999
H      50.242959999999997     50.868850000000002     47.429349999999999
H      51.444760000000002     48.978249999999996     47.798649999999995
H      44.555239999999998     47.380050000000004     48.682450000000003
H      45.338160000000002     45.652849999999994     48.218549999999993
