7

C      48.184449999999991     48.706549999999986     47.417899999999996
C      47.784949999999995     47.403049999999993     47.494000000000000
H      47.488749999999996     49.180350000000004     49.267700000000005
H      48.342649999999992     46.540350000000004     47.135000000000005
H      49.035350000000001     49.117850000000004     46.732299999999995
H      46.964649999999999     47.147149999999996     48.160600000000002
O      48.294550000000001     49.459649999999996     48.550600000000003
