18

C      48.655599999999993     47.958959999999990     48.659599999999998
C      47.802700000000002     48.045490000000001     47.540300000000002
C      48.622700000000009     46.774560000000001     49.491000000000000
C      46.592300000000009     47.225290000000001     47.724299999999999
C      49.216400000000007     49.259520000000002     49.010100000000001
C      47.858600000000010     49.268310000000000     46.730300000000000
C      47.720600000000005     45.801429999999996     49.235900000000008
C      46.637000000000000     45.935020000000002     48.165900000000001
C      49.259600000000006     50.461399999999990     48.361300000000000
C      48.647500000000008     50.294300000000000     47.051200000000001
H      49.382300000000015     46.704059999999998     50.293700000000001
H      45.672100000000000     47.645679999999999     47.484400000000001
H      47.429900000000004     49.411949999999997     45.706299999999999
H      47.714200000000005     45.003959999999999     49.882500000000000
H      45.767600000000002     45.261240000000001     47.943700000000000
H      50.327900000000000     50.917589999999997     48.598100000000002
H      48.986000000000004     50.996040000000001     46.303000000000004
H      49.810400000000001     49.426710000000007     50.079200000000000
