18

C      48.715349999999994     47.193499999999993     47.770099999999992
C      48.402950000000004     48.639899999999997     47.557600000000001
C      49.200749999999999     46.717299999999994     49.032899999999998
C      48.487750000000005     49.376700000000000     48.750100000000003
C      48.082350000000005     46.328299999999999     46.781700000000001
C      47.552149999999997     49.112499999999997     46.498400000000004
C      49.663349999999994     47.625100000000003     50.031799999999990
C      49.075249999999997     48.985599999999991     49.946199999999997
C      46.991349999999997     46.901299999999992     46.097099999999998
C      46.773250000000004     48.268500000000003     45.764700000000005
H      49.497550000000004     45.714299999999994     48.767200000000003
H      48.096050000000005     50.763599999999997     48.636700000000005
H      48.019950000000001     45.236400000000003     46.873500000000000
H      47.551650000000002     50.192300000000003     46.377300000000005
H      50.092349999999996     47.222200000000001     50.944699999999997
H      49.088650000000001     49.776699999999991     50.720700000000001
H      46.535350000000001     46.432199999999995     45.185800000000000
H      45.907650000000004     48.646299999999997     45.055300000000003
