18

C      48.167749999999991     47.909599999999990     48.437446999999999
C      48.524250000000002     47.940899999999999     46.980505000000015
C      47.717750000000002     46.555099999999996     48.911285000000007
C      48.705750000000009     46.771999999999998     46.226205000000022
C      48.522149999999996     48.901200000000003     49.298555000000007
C      48.886150000000001     49.311099999999996     46.636005000000004
C      47.047649999999997     45.726199999999999     47.840782000000004
C      47.880249999999997     45.713799999999999     46.565405000000027
C      48.501949999999994     50.220299999999995     48.806754999999995
C      48.869450000000001     50.366900000000001     47.401005000000012
H      47.208449999999999     46.661999999999999     49.830015000000003
H      49.635649999999998     46.866699999999994     45.598004999999993
H      48.454250000000002     48.552800000000005     50.433495000000008
H      49.224350000000001     49.532899999999998     45.566504999999992
H      46.364350000000002     44.819400000000002     48.098895000000006
H      47.956249999999997     44.605199999999996     46.692705000000011
H      48.495350000000002     50.941400000000002     49.577955000000003
H      49.145049999999998     51.394800000000004     46.943905000000015
