18

C      48.505349999999993     47.882849999999991     47.353549999999998
C      48.096850000000003     48.421349999999997     48.651349999999994
C      48.721649999999997     46.500949999999996     47.282250000000005
C      48.763450000000006     48.041350000000001     49.873850000000004
C      47.869550000000004     48.720149999999997     46.387950000000004
C      46.992649999999998     49.301750000000006     48.882649999999998
C      49.474950000000007     46.050350000000002     48.477750000000000
C      49.602850000000004     46.889850000000003     49.665649999999999
C      47.019150000000010     49.769649999999992     46.598150000000004
C      46.371450000000010     50.002850000000002     47.822850000000003
H      49.010550000000009     45.965150000000001     46.363349999999997
H      48.886850000000010     48.710850000000001     50.849149999999995
H      47.855350000000001     48.386749999999999     45.150850000000005
H      46.337750000000000     49.625250000000001     49.751949999999994
H      50.274950000000004     45.289149999999999     48.571449999999999
H      50.322749999999999     46.473549999999996     50.350750000000005
H      46.454549999999998     50.430050000000001     45.893249999999995
H      45.677250000000001     50.710850000000001     48.416650000000004
