5

C      47.858649999999997     48.199950000000001     48.111099999999986
H      48.813649999999996     48.654649999999997     48.678100000000001
H      47.712049999999991     47.511650000000003     47.244100000000003
H      47.186350000000004     48.790749999999996     48.755899999999997
H      47.591849999999994     47.209250000000004     48.565299999999993
