18

C      47.829849999999993     47.294299999999993     48.339349999999996
C      47.735450000000000     48.769500000000001     48.108150000000002
C      46.716449999999995     46.450899999999997     48.831650000000003
C      46.583649999999992     49.392199999999995     48.453049999999998
C      49.088849999999994     46.604999999999997     48.181550000000001
C      48.715249999999997     49.619599999999998     47.341450000000002
C      45.590850000000003     47.281799999999997     48.957950000000004
C      45.470050000000001     48.663199999999996     48.899650000000001
C      50.100049999999996     47.483100000000000     47.743150000000000
C      49.896649999999994     48.831899999999997     47.152850000000001
H      46.727549999999994     45.516500000000001     49.291650000000004
H      46.428150000000002     50.483499999999999     48.236449999999998
H      49.601749999999996     46.309300000000000     49.186950000000003
H      48.265050000000002     50.333700000000000     46.704250000000002
H      44.922849999999997     46.669100000000000     49.556649999999998
H      44.759950000000003     49.298299999999998     49.278649999999999
H      51.240049999999997     47.307299999999991     48.000149999999998
H      50.664449999999988     49.302500000000002     46.443350000000002
