19

C      49.663749999999986     47.062249999999992     48.005349999999993
C      48.363649999999993     46.599649999999997     47.571350000000002
C      47.217349999999996     47.597650000000002     47.562850000000005
C      47.505150000000000     48.908749999999998     48.189349999999997
C      48.757249999999999     49.188249999999996     48.695050000000002
C      49.901449999999997     48.341250000000002     48.474250000000005
C      48.255749999999992     45.518450000000001     46.648949999999999
C      48.971549999999993     50.294749999999993     49.729450000000000
C      46.076049999999995     47.458649999999992     46.773249999999997
H      45.631949999999989     46.432449999999989     46.042650000000002
H      50.263449999999992     46.199449999999999     47.733350000000002
H      50.717050000000000     48.628149999999991     49.115950000000005
H      49.303249999999991     45.151949999999999     46.093449999999997
H      47.990049999999997     50.578350000000000     49.845250000000000
H      46.303349999999995     50.202149999999989     47.509950000000003
H      45.282950000000000     48.071949999999987     47.006549999999997
O      47.137949999999989     45.252649999999988     46.052950000000003
O      50.045449999999988     50.848050000000001     49.957349999999998
O      46.643349999999998     49.965649999999997     48.448850000000000
