6

C      47.648200000000003     48.022549999999988     47.375799999999991
C      47.849699999999999     47.808049999999994     48.689899999999994
H      47.552800000000005     47.080749999999995     46.893400000000000
H      47.910600000000002     49.018649999999994     46.655400000000000
H      47.748800000000003     48.569249999999997     49.344600000000000
H      48.447199999999995     46.981350000000006     49.016300000000001
