18

C      48.281299999999987     48.346999999999987     48.393100000000004
C      47.597799999999992     47.814899999999994     47.298000000000002
C      49.159999999999997     49.521199999999993     48.351600000000005
C      47.825500000000005     48.182199999999995     45.915499999999994
C      48.343099999999993     47.728699999999996     49.719300000000004
C      46.795900000000003     46.591099999999997     47.600800000000007
C      49.040800000000004     50.020799999999994     47.021799999999999
C      48.753399999999999     49.206799999999994     45.925100000000000
C      47.700699999999998     46.550099999999993     49.799899999999994
C      46.962299999999999     45.816899999999997     48.706100000000006
H      49.718500000000006     49.909800000000004     49.194199999999995
H      47.594099999999997     47.584699999999998     45.087500000000006
H      49.063999999999993     47.986499999999992     50.516599999999997
H      46.281499999999994     46.183599999999998     46.843900000000005
H      49.398400000000009     51.054000000000002     47.075100000000006
H      48.699900000000000     49.887799999999999     45.117300000000000
H      48.206699999999998     46.291499999999999     50.912499999999994
H      46.400000000000006     44.945999999999998     48.957999999999998
