18

C      47.213249999999988     48.028749999999995     47.281899999999986
C      48.208250000000007     48.147950000000009     48.439599999999999
C      47.250749999999996     48.975949999999997     46.285200000000003
C      49.341050000000010     48.828650000000010     47.901100000000000
C      46.193950000000001     47.024250000000002     47.278799999999990
C      47.716450000000009     47.608950000000000     49.703299999999999
C      48.237449999999995     49.914550000000006     46.145699999999991
C      49.495150000000010     49.669749999999993     46.792000000000002
C      45.981150000000000     46.365549999999999     48.490799999999993
C      46.618449999999996     46.834449999999997     49.771400000000000
H      46.434650000000005     49.472549999999998     45.694800000000001
H      50.366950000000003     49.087950000000006     48.402999999999992
H      45.632649999999998     46.854849999999999     46.324299999999994
H      48.543350000000004     47.747050000000002     50.465000000000003
H      47.920050000000003     50.586050000000000     45.283000000000001
H      50.405349999999999     50.189049999999995     46.785600000000002
H      45.594650000000001     45.413950000000000     48.545199999999994
H      46.203850000000003     46.304049999999997     50.716999999999999
