18

C      48.734992999999989     48.436549999999997     47.557849999999988
C      47.284492999999991     48.200350000000000     47.997449999999994
C      49.424793000000001     48.699949999999987     48.696349999999995
C      46.664093000000001     49.071749999999994     48.965250000000005
C      49.169592999999999     47.817750000000004     46.323349999999998
C      46.533692999999992     47.307850000000002     47.135449999999999
C      48.904092999999996     49.276349999999994     49.855449999999998
C      47.528292999999998     49.419849999999997     50.074349999999995
C      48.344792999999989     46.836749999999995     45.650749999999995
C      46.978293000000001     46.716350000000006     45.915549999999996
H      50.508806999999997     48.796850000000006     48.824149999999996
H      45.525692999999997     49.279349999999994     49.035249999999998
H      50.313886000000004     47.732150000000004     46.042049999999996
H      45.491193000000003     47.001450000000006     47.326949999999997
H      49.819447000000004     49.449650000000005     50.332649999999994
H      47.028992999999993     49.883949999999999     50.963450000000002
H      48.898392999999992     46.128650000000007     45.036549999999998
H      46.111192999999993     46.116050000000001     45.377749999999999
