18

C      47.763699999999993     47.406849999999991     47.885849999999991
C      47.932499999999990     48.452950000000001     48.810049999999997
C      48.609299999999990     46.261550000000000     47.723750000000003
C      48.792599999999993     47.992049999999992     49.906249999999993
C      46.907199999999989     47.617349999999988     46.720549999999996
C      47.500599999999991     49.683650000000000     48.308249999999994
C      49.497999999999990     46.038349999999994     48.782850000000003
C      49.632199999999997     46.826549999999997     49.957050000000002
C      46.419600000000003     48.982549999999989     46.343049999999998
C      47.000399999999999     50.011149999999986     47.077649999999998
H      48.464199999999991     45.761550000000000     46.839649999999999
H      48.812100000000001     48.759249999999994     50.775449999999999
H      46.444599999999994     46.809950000000001     45.871149999999993
H      48.062799999999996     50.558649999999986     48.775550000000003
H      50.035899999999998     45.086050000000000     48.607849999999992
H      49.890699999999995     45.998249999999999     50.616449999999993
H      45.964100000000002     49.139949999999999     45.224550000000001
H      46.856799999999993     50.913950000000000     46.888649999999991
