18

C      47.930149999999990     48.482699999999994     47.444649999999996
C      48.269149999999996     47.972200000000001     48.805950000000003
C      46.648449999999997     48.890100000000004     47.041550000000008
C      47.039349999999999     47.354600000000005     49.299849999999999
C      49.115349999999992     48.710400000000007     46.739650000000005
C      49.510750000000002     47.384000000000000     49.128850000000007
C      45.549049999999994     48.237499999999997     47.664650000000002
C      45.673850000000002     47.687200000000004     48.974250000000005
C      50.416150000000002     48.623600000000010     47.308850000000000
C      50.610950000000003     47.657899999999998     48.322450000000003
H      46.597549999999998     48.857200000000006     45.908050000000003
H      47.062649999999991     46.923299999999998     50.169249999999998
H      48.886949999999999     49.383099999999999     45.830750000000002
H      49.747749999999996     46.616900000000001     50.113450000000007
H      44.453749999999999     48.137900000000002     47.202350000000003
H      44.885549999999995     47.130600000000001     49.628950000000010
H      51.221449999999990     49.145399999999995     46.827150000000003
H      51.546250000000001     47.010100000000008     48.306750000000001
