18

C      48.222449999999995     48.845549999999996     47.841049999999996
C      49.144450000000006     47.724350000000001     48.027850000000001
C      48.824250000000006     49.689349999999990     46.737250000000003
C      49.254850000000005     46.481349999999999     48.821950000000008
C      46.893450000000001     48.999150000000000     48.306450000000005
C      48.032650000000004     46.132050000000000     49.355750000000000
C      49.972849999999994     48.942049999999995     46.289250000000003
C      50.020150000000001     47.691549999999999     46.904150000000001
C      46.188649999999996     47.956949999999999     48.965550000000000
C      46.657650000000004     46.606050000000003     49.243550000000006
H      50.098749999999995     45.760350000000003     48.983550000000001
H      48.281450000000007     50.446550000000002     45.965550000000000
H      46.523550000000000     50.126249999999999     48.367449999999998
H      48.511749999999992     45.553449999999998     50.269449999999999
H      50.827349999999996     49.335650000000001     45.730550000000001
H      50.636049999999997     46.876950000000001     46.463950000000004
H      45.172650000000004     48.185850000000002     49.324649999999998
H      46.033450000000002     45.902650000000001     48.701850000000000
