18

C      48.425799999999995     48.604199999999999     47.374999999999993
C      48.158300000000004     47.483199999999997     48.347200000000001
C      49.062800000000003     49.789299999999997     47.968099999999993
C      48.574300000000001     47.628799999999998     49.719700000000003
C      47.493500000000004     48.809200000000004     46.319699999999997
C      47.263100000000001     46.566299999999998     47.874799999999993
C      49.298200000000001     49.958299999999994     49.342500000000001
C      49.102000000000004     48.782600000000002     50.135599999999997
C      46.872400000000006     47.594999999999999     45.807100000000005
C      46.858000000000004     46.408900000000003     46.548999999999992
H      49.609200000000008     50.297499999999999     47.204200000000000
H      48.530200000000001     46.945700000000002     50.567200000000000
H      46.855200000000004     49.760900000000007     46.412099999999995
H      46.862100000000005     45.771500000000003     48.431200000000004
H      49.984800000000000     50.653999999999996     49.817599999999999
H      49.482300000000002     49.073700000000002     51.103899999999996
H      46.371800000000000     47.757400000000004     44.896100000000004
H      46.015200000000000     45.346000000000004     46.034899999999993
