39

C      47.704199999999993     49.526899999999991     48.045949999999998
C      48.743400000000008     50.541799999999995     47.880150000000000
C      51.245800000000003     46.542199999999994     47.618150000000000
C      47.918900000000008     48.015699999999995     48.225949999999997
C      50.094400000000007     50.033400000000000     48.313350000000000
C      49.788100000000000     46.416699999999999     47.880350000000007
C      51.528900000000007     47.926699999999997     47.483450000000005
C      49.263100000000009     47.694699999999997     48.185749999999999
C      50.379500000000007     48.701599999999999     47.989549999999994
C      46.319500000000005     49.701999999999998     48.177450000000007
C      46.030600000000007     51.059399999999997     47.678950000000000
C      47.193500000000000     51.927499999999995     47.338449999999995
C      45.259500000000003     48.739599999999996     47.921049999999994
C      43.888000000000005     49.292999999999999     48.015649999999994
C      43.674000000000007     50.611099999999993     47.710650000000001
C      44.702100000000002     51.498100000000008     47.483750000000001
C      45.559200000000004     47.399600000000000     48.127949999999998
C      46.956299999999999     46.955600000000004     48.250050000000002
C      47.482600000000005     45.534099999999995     48.580749999999995
C      48.870199999999997     45.404799999999994     48.284450000000007
C      49.116399999999999     43.790800000000004     48.375749999999996
C      52.325299999999999     45.454799999999999     47.768550000000005
H      52.647199999999998     48.230699999999999     47.555850000000007
H      46.741900000000001     52.731899999999996     46.747249999999994
H      42.631900000000002     50.876300000000001     47.428950000000000
H      44.586500000000001     52.307699999999997     46.778149999999997
H      44.854799999999997     46.645299999999999     47.945750000000004
H      46.689500000000010     44.859999999999999     48.784149999999997
H      48.208100000000002     43.494399999999999     47.925550000000001
H      43.236300000000000     47.627600000000001     48.180949999999996
H      50.981400000000008     51.411400000000000     49.484049999999996
H      50.008499999999998     43.345299999999995     48.359150000000000
H      49.032899999999998     43.268100000000004     49.310749999999999
H      52.545500000000004     45.262599999999999     46.515950000000004
H      53.368099999999998     45.902999999999999     47.900750000000002
H      51.913300000000007     44.469499999999996     47.917749999999998
N      48.440700000000007     51.763599999999997     47.646349999999998
O      42.820800000000006     48.591600000000000     48.420249999999996
O      51.039200000000008     50.948200000000000     48.584050000000005
