18

C      48.261200000000002     48.537799999999997     48.922049999999992
C      48.758299999999991     47.397599999999997     47.880949999999999
C      48.601900000000001     49.853499999999997     48.523050000000005
C      49.310299999999998     47.746900000000011     46.611150000000002
C      47.337100000000007     48.095399999999998     49.941650000000010
C      48.756600000000006     46.217799999999997     48.622350000000004
C      49.372299999999996     50.124700000000004     47.359250000000003
C      49.011800000000008     49.121900000000011     46.329250000000002
C      46.896100000000004     46.797899999999998     49.920950000000005
C      47.772700000000000     45.827600000000004     49.524649999999994
H      48.429900000000004     50.478999999999999     49.302050000000008
H      49.874299999999991     47.368700000000004     45.834650000000003
H      46.683599999999998     48.867900000000006     50.362650000000002
H      49.156999999999996     45.372100000000003     47.847750000000005
H      49.365000000000009     51.194299999999998     47.105350000000001
H      48.666399999999996     49.308199999999999     45.264949999999999
H      46.125700000000009     46.921400000000006     50.735050000000001
H      47.643600000000006     44.805700000000002     49.959650000000011
