18

C      48.558099999999989     47.315399999999997     47.722049999999996
C      47.732099999999996     48.464199999999991     48.038050000000005
C      48.651299999999999     46.688400000000001     48.953350000000007
C      47.244399999999999     48.721400000000003     49.354350000000004
C      48.865099999999998     46.948499999999996     46.493550000000006
C      47.329099999999997     49.242400000000004     46.808850000000007
C      48.485199999999999     46.968599999999995     50.364950000000015
C      47.598599999999998     48.208199999999991     50.679250000000003
C      48.792499999999997     47.828099999999992     45.504450000000006
C      47.767899999999997     48.859600000000000     45.537050000000001
H      49.130600000000001     45.717900000000000     48.839050000000007
H      46.308099999999996     49.250399999999999     49.678550000000008
H      49.691900000000004     46.250500000000002     46.312450000000005
H      47.005299999999998     50.282100000000000     46.936150000000005
H      49.294499999999999     46.937699999999992     51.016950000000008
H      47.852599999999995     48.832799999999992     51.643149999999999
H      49.401999999999987     47.424300000000002     44.356850000000001
H      47.535999999999994     49.582499999999996     44.742150000000002
