18

C      47.241399999999985     48.079849999999993     48.916349999999987
C      48.651000000000003     47.900649999999999     48.570650000000001
C      46.548299999999990     49.147649999999999     48.169849999999997
C      49.272299999999994     48.766149999999996     47.573849999999993
C      46.502099999999992     46.835750000000004     49.281350000000003
C      49.523699999999998     46.984449999999995     49.269149999999996
C      47.205800000000004     50.130049999999997     47.290949999999995
C      48.519100000000002     49.648949999999999     46.763949999999994
C      47.325799999999994     45.909049999999993     49.830950000000001
C      48.741199999999999     46.043949999999995     49.927449999999993
H      45.521700000000003     49.137149999999991     48.293250000000000
H      50.181199999999997     48.641850000000005     47.299049999999994
H      45.463799999999999     46.524349999999998     49.164149999999992
H      50.536200000000001     47.285750000000007     49.449449999999999
H      46.857999999999997     51.152649999999994     47.061349999999997
H      49.045299999999990     49.989949999999993     45.892849999999996
H      46.988599999999998     44.847350000000006     50.107150000000004
H      49.338999999999992     44.937449999999998     50.052949999999996
