5

C      48.075699999999991     48.100024999999988     47.959799999999987
H      47.039900000000003     48.257844999999996     47.679499999999997
H      47.935699999999997     48.153574999999996     49.045200000000001
H      48.541700000000006     48.477255000000007     46.954799999999999
H      48.960099999999997     47.522744999999993     48.424999999999990
