31

C      48.665749999999989     47.428049999999992     48.875799999999991
C      47.459350000000001     47.487849999999995     49.646900000000002
C      46.632549999999995     49.140749999999997     44.799800000000005
C      45.352850000000004     49.389449999999997     45.429199999999994
C      48.917450000000002     47.758550000000000     47.510199999999998
C      46.342749999999995     47.804050000000004     48.825199999999995
C      47.684049999999999     48.495149999999995     45.447400000000002
C      45.125950000000003     48.753749999999997     46.737800000000007
C      47.556950000000001     48.042749999999998     46.726500000000001
C      46.319649999999996     48.359250000000003     47.452399999999997
C      50.151049999999998     47.228149999999999     49.330299999999994
C      50.158150000000006     46.701250000000002     50.747000000000000
C      48.927949999999996     46.430149999999998     51.215699999999998
C      47.633049999999997     46.593450000000004     50.752700000000004
C      50.250350000000012     48.176950000000005     47.318799999999996
C      50.817049999999995     49.104749999999996     46.188100000000006
C      50.969350000000006     47.680250000000001     48.385300000000001
C      45.020849999999996     47.383449999999996     49.307000000000002
H      50.524950000000004     48.749049999999997     45.234700000000004
H      46.590950000000007     49.534250000000000     43.651200000000003
H      44.523750000000007     50.086950000000002     44.925399999999996
H      48.771749999999997     48.444249999999997     44.986300000000000
H      44.032350000000008     48.901349999999994     47.101799999999997
H      51.116650000000007     46.506050000000002     51.261600000000001
H      48.846850000000003     45.913049999999998     52.348799999999997
H      46.721550000000008     46.878249999999994     51.487899999999996
H      50.031250000000000     49.890050000000002     46.315200000000004
H      51.916750000000008     49.598349999999996     46.292100000000005
H      52.039550000000006     47.739649999999997     48.667100000000005
H      45.491749999999996     46.736249999999998     50.222700000000003
O      43.960449999999994     46.886849999999995     48.970200000000006
