18

C      47.516299999999987     48.143944999999995     47.265749999999990
C      48.054699999999990     47.833145000000002     48.551149999999993
C      46.465399999999995     47.275235000000002     46.671149999999997
C      47.673499999999997     46.490855000000003     49.179050000000004
C      47.688699999999990     49.465845000000002     46.664850000000001
C      48.960900000000002     48.858744999999999     49.062150000000003
C      46.347400000000000     45.968665000000001     46.973249999999993
C      46.905899999999995     45.759495000000001     48.245849999999990
C      48.667699999999996     50.239944999999992     47.196349999999995
C      49.445999999999991     49.996345000000005     48.365449999999996
H      46.111399999999996     47.450454999999998     45.686949999999996
H      48.050999999999995     46.258895000000003     50.313050000000004
H      47.233599999999996     49.878145000000004     45.725049999999996
H      49.307700000000004     48.925345000000000     50.058149999999998
H      45.962899999999998     45.040865000000004     46.449050000000000
H      47.116599999999998     44.785454999999999     48.693449999999999
H      48.773499999999991     51.214545000000001     46.693149999999996
H      50.037100000000002     50.890045000000001     48.925349999999995
