18

C      47.947449999999996     48.570849999999993     48.766381999999993
C      48.295550000000006     47.722950000000004     47.586665000000025
C      46.887650000000008     48.095250000000000     49.523885000000000
C      47.626650000000005     46.492049999999999     47.424365000000009
C      48.336449999999999     49.923349999999992     48.916289999999996
C      49.077950000000001     48.149949999999997     46.455464999999990
C      46.413950000000000     46.739849999999997     49.434464999999996
C      47.212450000000004     45.806049999999999     48.569881000000002
C      49.147050000000007     50.282949999999992     47.869465000000012
C      49.402550000000005     49.479850000000006     46.640664999999998
H      46.980550000000008     48.752149999999993     50.508035000000000
H      48.268450000000001     46.076850000000000     46.521465000000028
H      48.042950000000005     50.974350000000001     49.699075000000001
H      49.184850000000004     47.602650000000004     45.491965000000000
H      46.260850000000005     46.188849999999995     50.381485000000005
H      47.767450000000004     44.777750000000005     48.922065999999994
H      49.739149999999995     51.222249999999995     47.887365000000010
H      49.728850000000008     49.829749999999997     45.560964999999989
