5

C      48.048150000000000     48.204854999999995     48.346449999999990
H      48.081050000000005     48.533744999999996     47.329149999999998
H      48.330849999999998     47.154735000000002     48.484850000000009
H      48.969849999999994     48.801564999999997     48.670850000000002
H      47.030150000000006     48.845264999999998     48.549750000000003
