21

C      49.837199999999989     50.221699999999991     46.270199999999988
C      47.710499999999996     46.801500000000004     48.241799999999998
C      47.613099999999996     48.276700000000005     48.502200000000002
C      48.990399999999994     46.551200000000001     47.580500000000001
C      48.357199999999992     49.461200000000005     48.126099999999994
C      46.622799999999998     45.916800000000002     48.623099999999994
C      46.500299999999996     48.858200000000004     49.272600000000011
C      49.621899999999997     47.688300000000005     46.981500000000011
C      49.433399999999992     49.109400000000001     47.313900000000004
C      45.979399999999998     46.459600000000002     49.696100000000001
C      45.905699999999996     47.894200000000005     50.033699999999996
H      49.115299999999991     51.064499999999995     46.575400000000002
H      50.904100000000000     50.279100000000000     46.185100000000006
H      49.535499999999999     50.092200000000005     45.338300000000004
H      49.389799999999994     45.653500000000001     47.307500000000005
H      47.940899999999999     50.370500000000007     48.186100000000010
H      46.398499999999999     44.935500000000005     48.254200000000012
H      46.379199999999997     49.916200000000003     49.309800000000010
H      50.180199999999999     47.167600000000000     46.248699999999999
H      45.335699999999996     45.816800000000001     50.035100000000000
H      45.095900000000000     48.512500000000003     50.661699999999996
