18

C      47.968449999999990     48.205449999999999     47.378399999999999
C      48.473449999999993     47.861649999999997     48.755900000000004
C      48.413750000000000     47.547349999999994     46.240800000000000
C      48.712850000000003     46.437950000000001     48.992600000000003
C      47.585450000000002     49.675750000000008     47.240400000000001
C      48.460050000000003     48.612549999999999     49.966200000000008
C      48.811149999999991     46.274650000000008     46.617100000000001
C      48.915249999999993     45.705749999999995     47.878599999999999
C      47.440249999999999     50.386949999999999     48.482000000000006
C      47.938450000000003     49.846450000000004     49.768700000000003
H      48.208250000000000     47.739850000000004     45.152499999999996
H      48.915950000000002     46.177850000000007     49.945399999999999
H      47.014949999999999     49.602149999999995     46.419000000000004
H      48.640750000000004     48.032049999999998     50.847500000000004
H      48.907249999999998     45.534350000000003     45.709300000000006
H      48.985050000000001     44.629050000000007     47.941200000000002
H      47.054250000000003     51.370949999999993     48.852200000000003
H      47.867350000000002     50.695449999999994     50.601499999999994
