14

C      48.286049999999989     48.265749999999990     46.884499999999989
C      47.919849999999997     47.125950000000003     47.140999999999998
C      48.062150000000003     46.604649999999992     48.642299999999999
C      48.703150000000008     47.451749999999990     49.606299999999997
C      49.024150000000006     48.856650000000002     49.134799999999991
C      48.989550000000008     49.095249999999993     47.777099999999997
C      47.497450000000001     48.958449999999999     46.021799999999992
H      47.067449999999994     47.105049999999991     46.531799999999997
H      47.328950000000006     45.856650000000002     49.069099999999999
H      49.235849999999999     46.998049999999992     50.479700000000001
H      49.448750000000004     49.427949999999996     49.831799999999994
H      49.233850000000004     50.143349999999998     47.364699999999992
H      48.069249999999997     49.751949999999994     45.520299999999999
H      46.551249999999996     48.332749999999990     45.804499999999997
