18

C      48.466449999999995     48.013149999999989     47.517699999999998
C      47.549150000000004     48.014250000000004     48.548200000000008
C      49.770350000000001     48.339849999999998     47.898700000000005
C      47.758450000000003     48.359849999999994     49.940500000000007
C      48.297350000000002     47.398049999999998     46.178500000000007
C      46.203849999999996     47.890249999999995     48.070800000000006
C      49.984050000000003     48.684249999999999     49.195400000000006
C      48.994750000000003     48.852949999999993     50.312900000000006
C      47.108650000000004     46.978549999999998     45.808500000000009
C      46.054150000000000     47.170949999999998     46.802400000000006
H      50.659450000000000     48.499150000000000     47.292400000000008
H      46.754749999999994     48.483149999999995     50.585999999999999
H      49.143750000000004     47.562550000000002     45.457200000000007
H      45.403050000000000     48.140549999999990     48.570700000000002
H      50.898649999999996     49.301349999999999     49.832100000000011
H      49.194049999999997     49.144049999999993     51.303899999999999
H      46.923449999999995     46.698650000000001     44.696100000000001
H      45.101350000000004     47.155249999999995     46.309700000000007
