6

C      48.442549999999997     48.388899999999992     47.804149999999993
C      47.771249999999995     47.442999999999991     48.622149999999998
H      48.564049999999995     48.431599999999996     46.676449999999996
H      49.060950000000005     49.104700000000001     48.069150000000000
H      48.423649999999995     46.895299999999999     49.323550000000004
H      46.939049999999995     46.965199999999989     48.346750000000000
