5

C      48.047150000000002     48.231449999999995     47.603399999999993
H      46.994550000000004     48.086650000000006     47.270400000000002
H      47.688650000000010     48.255650000000003     48.729599999999998
H      49.005449999999996     48.734250000000003     47.807899999999997
H      48.489350000000002     47.265749999999997     47.320999999999998
