21

C      51.562150000000003     47.378850000000000     47.158699999999996
C      47.866450000000000     47.299750000000003     48.139200000000010
C      47.536749999999998     48.640649999999994     47.687400000000004
C      46.843550000000008     46.558650000000000     48.796700000000008
C      46.103250000000003     49.049350000000004     47.734500000000004
C      49.209150000000008     46.829549999999998     48.157800000000002
C      48.380150000000000     49.403450000000007     46.841600000000007
C      45.530349999999999     46.970950000000002     48.856400000000001
C      45.014449999999997     48.128249999999994     48.102000000000011
C      50.084050000000005     47.778750000000002     47.566400000000009
C      49.767949999999999     49.029849999999996     46.864800000000010
H      51.514250000000004     46.365350000000007     46.738000000000007
H      51.831849999999989     46.824050000000000     48.114600000000003
H      52.124449999999996     47.807050000000004     46.360599999999998
H      46.928350000000009     45.626850000000005     49.128599999999999
H      45.658450000000002     49.920549999999992     47.098599999999998
H      48.426950000000005     50.373149999999995     46.468499999999999
H      44.844049999999996     46.430250000000001     49.666300000000000
H      43.875550000000004     48.250749999999996     47.766399999999997
H      49.572050000000004     45.828050000000005     48.519300000000008
H      50.543750000000003     49.602549999999994     46.333700000000000
