6

C      48.056918999999994     47.770549999999986     47.292249999999989
H      46.948541000000006     47.700449999999996     47.866249999999994
H      47.728909000000002     48.750221000000003     46.837050000000005
H      48.333098999999990     46.799849999999999     46.836950000000002
H      48.540718999999996     49.200150000000001     49.163049999999998
S      49.051458999999994     47.855649999999990     48.788049999999998
