18

C      48.766599999999997     47.580249999999992     47.741849999999999
C      47.504900000000006     48.365250000000003     48.058749999999996
C      48.479900000000001     46.474249999999998     46.951349999999998
C      46.204599999999999     48.260249999999999     47.422350000000002
C      50.032300000000006     47.895750000000007     48.313650000000003
C      47.657200000000003     49.636650000000003     48.712949999999999
C      47.162900000000008     46.399850000000001     46.504349999999995
C      45.879599999999996     47.124949999999998     46.682449999999996
C      49.933500000000009     48.915650000000014     49.281450000000000
C      48.624400000000009     49.658349999999999     49.765650000000001
H      49.107300000000009     45.480249999999998     46.890549999999998
H      45.454999999999998     49.001350000000002     47.807849999999995
H      50.970800000000011     47.426450000000003     47.730550000000001
H      46.963999999999999     50.499949999999998     48.591249999999995
H      46.824600000000004     45.548850000000002     45.676250000000003
H      44.764499999999998     46.923650000000009     46.431149999999995
H      51.235500000000002     49.151350000000008     49.457749999999997
H      48.740200000000002     50.519750000000002     50.323749999999997
