5

C      47.949399999999990     47.712549999999993     48.256099999999996
H      48.955399999999997     47.681850000000004     48.811800000000005
H      47.974100000000007     47.485350000000004     47.188199999999995
H      48.252700000000004     48.730150000000002     47.686199999999999
H      47.044600000000003     47.269849999999998     48.468900000000005
