5

C      47.977934499999982     47.789364999999997     47.725999999999992
H      48.937165500000006     47.349995000000000     47.905500000000004
H      48.150534499999992     48.838735000000000     47.268900000000002
H      47.062834499999994     47.161265000000000     47.277100000000004
H      47.399234499999991     48.160995000000000     48.731099999999998
