18

C      48.391749999999995     48.848799999999997     48.408999999999999
C      47.607550000000003     47.765500000000003     47.694000000000003
C      49.771450000000002     48.824300000000001     48.114699999999999
C      48.268349999999998     46.478000000000002     47.507900000000006
C      47.806049999999999     49.664300000000004     49.432100000000005
C      46.239350000000002     47.933200000000006     47.571799999999996
C      50.141750000000002     47.993700000000004     46.980000000000004
C      49.502850000000009     46.740300000000005     46.742000000000004
C      46.447150000000008     49.646599999999999     49.397599999999997
C      45.670450000000002     48.864399999999996     48.605100000000007
H      50.520150000000001     49.503599999999999     48.779300000000006
H      47.707250000000002     45.544699999999999     46.995500000000007
H      48.293750000000003     50.455300000000001     50.014799999999994
H      45.293750000000003     47.313000000000002     47.028800000000004
H      51.388750000000002     48.071000000000005     46.835499999999996
H      49.807850000000002     45.933399999999999     45.954200000000000
H      45.805549999999997     50.257100000000001     50.045800000000000
H      44.611249999999998     49.494500000000009     48.447000000000003
