8

C      47.018049999999995     47.753049999999988     47.671549999999996
C      48.456450000000004     48.308850000000000     47.847650000000002
H      46.918550000000003     46.776350000000001     47.348450000000000
H      48.413550000000001     49.223649999999999     47.204250000000002
H      46.550950000000000     48.388449999999999     46.911550000000005
H      46.611049999999999     47.429449999999996     48.603350000000006
H      48.717349999999996     48.448550000000004     49.088449999999995
H      49.449050000000000     47.858150000000002     47.362549999999999
