9

C      49.225449999999995     47.513349999999988     47.861649999999990
C      47.951949999999997     48.142849999999996     48.459449999999997
H      49.478549999999984     46.602249999999998     48.446649999999998
H      48.248049999999992     48.644149999999996     49.271450000000002
H      47.384249999999994     47.394350000000003     49.004249999999999
H      50.040649999999999     48.401350000000008     48.352649999999997
H      49.079350000000005     47.662549999999996     46.728549999999998
H      45.959350000000001     49.397750000000002     47.688549999999992
S      47.164249999999996     49.083349999999996     47.075949999999992
