5

C      47.614949999999993     48.165309999999991     48.018199999999993
H      47.206650000000003     47.255490000000002     48.351399999999998
H      47.334949999999999     48.724020000000003     47.060299999999998
H      48.793349999999997     48.098360000000000     47.983699999999999
H      47.300450000000005     48.744509999999998     48.939700000000002
