18

C      48.499399999999994     47.935999999999993     47.941824999999994
C      47.198399999999999     48.445799999999998     48.345284999999990
C      49.745899999999999     48.675000000000004     47.990434999999991
C      47.267200000000003     49.466200000000001     49.285784999999990
C      48.558799999999998     46.725400000000000     47.106065000000001
C      46.106700000000004     47.826900000000002     47.387185000000002
C      49.717599999999997     49.763399999999997     48.860684999999989
C      48.490500000000004     50.165200000000006     49.399784999999994
C      47.479599999999998     45.990200000000002     46.577574999999996
C      46.235700000000001     46.700399999999995     46.528475000000000
H      50.668900000000001     48.332100000000004     47.840175000000002
H      46.351599999999998     50.143300000000004     49.445984999999993
H      49.484100000000005     46.612000000000002     46.496804999999995
H      45.331099999999999     48.310300000000005     46.833044999999998
H      50.383000000000003     50.674500000000002     49.005984999999995
H      48.464400000000005     51.040500000000002     50.120784999999998
H      47.888399999999997     44.959499999999998     46.117464999999996
H      45.418500000000002     45.984999999999999     45.879215000000002
