20

C      47.752812999999989     49.289999999999992     48.862199999999987
C      47.063313000000001     48.183999999999997     48.308599999999998
C      47.696413000000000     50.608199999999997     48.508699999999997
C      46.676712999999999     47.999199999999988     46.861599999999996
C      49.026913000000000     48.708699999999993     49.587299999999999
C      46.934312999999996     46.935299999999998     49.006399999999992
C      47.314213000000002     50.428999999999988     47.096799999999995
C      47.370313000000003     49.177999999999997     46.360299999999995
C      49.065312999999996     47.454699999999988     50.192500000000003
C      47.898712999999994     46.393299999999996     49.946899999999999
H      48.310012999999991     51.509000000000000     48.913199999999996
H      46.212313000000002     47.270599999999988     46.274000000000001
H      49.884256800000003     49.352599999999995     49.819099999999999
H      46.114012999999993     46.299899999999994     48.577500000000001
H      47.098212999999994     51.353699999999989     46.396200000000000
H      47.720512999999990     49.078599999999994     45.133299999999998
H      49.885987000000007     47.215799999999987     50.619699999999995
H      47.299512999999997     46.454299999999989     50.866700000000002
H      46.947212999999998     44.491000000000000     49.634499999999996
O      47.793012999999995     44.774299999999997     49.716299999999997
