43

C      51.596549999999993     49.388749999999995     44.352349999999987
C      47.219050000000003     48.639250000000004     47.776149999999994
C      47.108049999999999     48.880350000000007     46.354949999999995
C      44.292650000000002     45.319450000000003     46.722749999999998
C      46.501449999999998     47.556150000000002     48.413849999999989
C      45.966450000000002     48.074850000000005     45.791849999999990
C      44.584550000000000     45.905150000000006     48.087150000000001
C      45.607050000000001     46.850549999999998     47.571849999999991
C      45.252250000000004     47.017850000000003     46.190849999999990
C      48.444250000000004     49.013150000000003     48.450150000000001
C      49.574849999999998     49.059449999999998     47.492150000000002
C      49.318150000000003     49.471450000000004     46.037050000000001
C      48.071750000000002     49.295050000000003     45.454249999999995
C      48.646250000000002     48.739249999999998     49.935949999999998
C      49.977249999999998     48.916650000000004     50.350149999999992
C      50.917149999999999     49.229550000000003     49.456150000000001
C      50.883450000000003     49.288250000000005     48.046749999999996
C      47.743050000000004     47.844350000000006     50.592149999999997
C      46.701750000000004     47.306350000000002     49.838749999999997
C      45.790550000000003     46.135150000000003     50.235250000000001
C      44.455849999999998     45.629750000000001     49.551349999999992
C      50.755749999999999     51.188550000000006     45.659450000000000
C      46.131350000000005     45.230750000000000     51.102550000000001
C      50.589750000000002     49.957949999999997     45.475149999999992
H      50.801050000000004     49.397250000000000     43.570850000000000
H      52.152250000000002     48.326550000000005     44.347749999999998
H      52.266950000000001     50.155350000000013     44.013550000000002
H      43.874350000000000     44.440350000000002     46.459249999999990
H      45.607150000000004     48.855950000000007     44.566849999999995
H      48.142949999999999     49.286050000000003     44.439149999999991
H      51.877850000000002     49.197850000000003     50.004849999999998
H      51.468850000000003     49.331950000000006     47.064149999999991
H      43.733049999999999     46.105150000000002     50.105249999999991
H      44.328350000000000     44.476250000000007     49.935949999999998
H      51.628450000000008     51.649850000000001     44.957450000000001
H      50.757649999999998     47.935650000000003     51.952349999999988
H      47.248750000000001     47.282250000000005     52.429150000000000
H      47.014050000000005     45.346750000000000     51.647749999999995
H      45.982050000000001     44.350149999999999     51.602049999999998
H      49.909250000000000     51.527349999999998     46.117649999999990
N      44.472749999999998     46.049750000000003     45.615149999999993
O      50.242550000000001     48.690650000000005     51.659349999999996
O      47.819350000000000     47.852050000000006     51.905949999999997
