45

C      47.965149999999994     48.109549999999992     46.365729999999985
C      46.609549999999999     48.485749999999996     45.886530000000000
C      45.974750000000000     45.619749999999996     49.755649999999996
C      48.442049999999995     47.347449999999995     47.521160000000002
C      45.638549999999995     47.942149999999998     46.729683999999999
C      47.313450000000003     45.880150000000000     49.425429999999999
C      45.200150000000008     46.130449999999996     48.568480000000001
C      47.361649999999997     46.636150000000001     48.212899999999998
C      46.048550000000006     46.970649999999999     47.760800000000010
C      48.880250000000004     48.665450000000007     45.462329999999987
C      48.536150000000006     49.605450000000005     44.243130000000001
C      47.214150000000004     50.099149999999995     44.219829999999995
C      46.190449999999998     49.404650000000004     44.844029999999997
C      50.280050000000003     48.316150000000007     45.595829999999999
C      51.153350000000003     48.840949999999999     44.520029999999998
C      50.796750000000003     49.370750000000001     43.298330000000000
C      49.436650000000014     49.773750000000007     43.190129999999989
C      50.745350000000002     47.480750000000000     46.754719000000001
C      49.825650000000010     46.986550000000001     47.580340000000000
C      47.989350000000016     45.717449999999999     51.873710000000010
C      48.391250000000014     45.558050000000001     50.581490000000009
C      43.912549999999996     46.814850000000000     49.004710000000010
C      47.611249999999998     45.792249999999996     53.123320000000000
C      50.365750000000006     46.149550000000005     48.720790000000001
C      52.256950000000003     47.223050000000001     46.743876000000000
H      51.281149999999997     46.606250000000003     49.079339999999995
H      44.682950000000005     48.259650000000008     46.491807000000001
H      45.130650000000003     49.978949999999998     44.842129999999990
H      52.274850000000015     48.530249999999995     44.545429999999989
H      51.460750000000004     49.460650000000001     42.344029999999997
H      48.982450000000000     50.219250000000002     42.298729999999999
H      45.572050000000004     45.046250000000001     50.521219999999992
H      49.104250000000008     44.690750000000001     50.475999999999992
H      45.969549999999998     51.309249999999999     43.297429999999999
H      43.175449999999998     46.209450000000004     49.694569999999999
H      44.123950000000008     47.784649999999999     49.228369999999998
H      43.411150000000006     46.993350000000000     48.068350000000002
H      47.176950000000005     45.000250000000001     53.672819999999994
H      52.577750000000009     46.340949999999999     46.072329999999987
H      48.307150000000007     46.475250000000003     53.701270000000001
H      50.891750000000002     45.209050000000005     48.592520000000000
H      49.721350000000001     46.118250000000003     49.503880000000002
H      52.824550000000002     47.167649999999995     47.798830000000002
H      52.668650000000000     48.103049999999996     46.338529999999999
O      46.968150000000009     51.218249999999998     43.326429999999995
