5

C      47.834249999999983     48.387449999999987     47.843049999999991
H      48.822950000000006     48.277749999999997     47.313250000000004
H      48.069150000000008     48.361149999999995     48.926849999999995
H      47.177049999999994     48.784850000000006     47.073150000000005
H      47.561449999999994     47.215149999999994     47.710950000000004
