18

C      47.517299999999992     47.697599999999994     48.686499999999988
C      48.144999999999996     47.506299999999996     47.324500000000000
C      48.317200000000000     47.592799999999997     49.791700000000006
C      49.434699999999992     46.867799999999995     47.255499999999998
C      46.222499999999997     48.088099999999990     48.983000000000004
C      47.540199999999999     47.987500000000004     46.153900000000007
C      49.661199999999994     47.379799999999996     49.525499999999994
C      50.329499999999996     46.933000000000000     48.279200000000003
C      45.596400000000003     48.575299999999999     47.768000000000001
C      46.306200000000004     48.608599999999996     46.528400000000005
H      47.973599999999990     47.836199999999998     50.814400000000006
H      49.795400000000001     46.434199999999997     46.229900000000001
H      46.037800000000004     48.530099999999997     49.837100000000007
H      48.116399999999999     48.248300000000008     45.185599999999994
H      50.439299999999989     47.519199999999998     50.269400000000005
H      51.409700000000001     46.556300000000000     48.212800000000001
H      44.590299999999999     48.988499999999995     47.772199999999998
H      45.698999999999998     49.565800000000003     45.918700000000001
