6

C      47.415549999999996     48.120999999999995     48.296499999999988
C      48.444950000000006     47.585899999999995     47.778199999999998
H      46.330150000000003     48.096699999999998     48.273299999999992
H      47.467050000000000     48.657299999999999     49.426800000000000
H      48.246749999999992     47.342700000000001     46.573200000000000
H      49.669849999999997     47.489699999999999     47.573999999999998
