60

C      49.886049999999990     51.100399999999993     51.196099999999994
C      45.459350000000001     46.977499999999992     46.325200000000002
C      48.361549999999994     51.004800000000003     51.153000000000006
C      44.735150000000004     47.853600000000000     47.327800000000003
C      50.397549999999995     49.885999999999996     50.907700000000006
C      46.612449999999995     46.263400000000004     46.706700000000005
C      47.444649999999996     50.055700000000002     50.694800000000001
C      45.412649999999999     48.310100000000006     48.421100000000003
C      50.148150000000001     47.290700000000001     51.270600000000002
C      49.478849999999994     46.150999999999996     50.955000000000005
C      47.952249999999992     45.623899999999992     48.792800000000000
C      49.567849999999993     48.661699999999996     50.753600000000006
C      46.819350000000000     46.368700000000004     48.185100000000006
C      48.315849999999998     46.125799999999998     49.989700000000006
C      48.121849999999995     48.802599999999998     50.616800000000005
C      46.542850000000001     47.498599999999996     48.965400000000002
C      47.419650000000004     47.386899999999997     50.237200000000001
C      50.779650000000004     52.211600000000004     51.645899999999997
C      49.962050000000005     53.253500000000003     52.167700000000004
C      48.592449999999999     53.208399999999997     52.315800000000010
C      47.807249999999996     52.081400000000002     51.911400000000000
C      44.968850000000003     47.170599999999993     44.953000000000003
C      43.739949999999993     47.818299999999994     44.726100000000002
C      43.202950000000001     48.858999999999995     45.563200000000002
C      43.692049999999995     48.756500000000003     46.875500000000002
C      51.561449999999994     47.282600000000002     51.300399999999996
C      52.060249999999996     45.936099999999996     51.564899999999994
C      51.348150000000004     44.704800000000006     51.490100000000012
C      50.015649999999994     44.855100000000007     51.258600000000001
C      52.551149999999993     48.387799999999999     51.155000000000001
C      51.862750000000005     49.808399999999992     51.212800000000001
C      52.177149999999997     52.133499999999998     51.492100000000001
C      52.710549999999998     50.849499999999992     51.386600000000001
C      47.063749999999999     45.136600000000001     45.930500000000002
C      45.480549999999994     46.471999999999994     43.679700000000004
C      46.884150000000005     43.782600000000002     46.507300000000001
C      46.639250000000004     42.659400000000005     45.720500000000001
H      46.214749999999995     50.230099999999993     50.777300000000004
H      45.214649999999992     49.326599999999999     48.787000000000006
H      48.769750000000002     45.046199999999999     48.233300000000000
H      50.437349999999995     54.265199999999993     52.354000000000006
H      48.081149999999994     53.759100000000004     53.156199999999998
H      46.830649999999991     52.310500000000005     52.068700000000000
H      42.212050000000005     49.235799999999998     45.365700000000004
H      43.111249999999998     49.454099999999997     47.544000000000004
H      53.154250000000005     45.947199999999995     51.874000000000009
H      51.902850000000001     43.793400000000005     51.486900000000006
H      49.548050000000003     43.874000000000009     51.172300000000000
H      53.356349999999992     48.000600000000006     51.780599999999993
H      52.709350000000001     53.209000000000003     51.518900000000002
H      53.787949999999995     50.628299999999996     51.594399999999993
H      46.553749999999994     46.352999999999994     43.245300000000000
H      44.849050000000005     45.617599999999996     43.818700000000000
H      45.036050000000003     47.052300000000002     42.843800000000002
H      43.143450000000001     48.039800000000000     43.815600000000003
H      46.352450000000005     43.764499999999998     47.554700000000004
H      46.754449999999991     42.740300000000005     44.543400000000005
H      46.052250000000001     41.734800000000007     45.789900000000003
H      46.542349999999999     44.992300000000000     45.010600000000004
H      46.572249999999997     47.188199999999995     51.024100000000004
