18

C      48.006744999999995     47.553349999999995     48.312100000000001
C      48.217874999999999     48.909750000000003     47.716000000000008
C      47.319704999999999     46.542349999999999     47.654899999999998
C      47.658614999999998     48.907150000000001     46.333900000000000
C      48.760145000000001     47.058650000000000     49.540000000000006
C      49.295764999999996     49.761049999999997     48.279899999999998
C      46.665464999999998     46.656850000000006     46.376500000000007
C      46.738994999999996     47.948250000000002     45.778199999999998
C      49.675964999999998     48.037550000000010     50.066100000000006
C      49.665264999999998     49.394550000000010     49.550700000000006
H      47.611995000000000     45.417749999999998     48.008800000000008
H      48.414135000000009     49.284150000000011     45.746700000000004
H      48.365135000000002     46.038750000000007     49.823099999999997
H      49.531065000000005     50.582250000000002     47.523400000000009
H      45.855435000000000     46.095450000000000     45.883200000000002
H      46.289135000000002     48.085149999999999     44.872600000000006
H      49.394565000000000     48.016149999999996     51.127399999999994
H      50.144565000000000     50.264950000000013     50.044100000000000
