18

C      48.274999999999991     48.247099999999989     48.103899999999996
C      47.959600000000002     47.278599999999997     47.133000000000003
C      49.209499999999998     49.354000000000006     48.014299999999999
C      48.931599999999996     46.983699999999999     46.082400000000000
C      47.650500000000001     47.947800000000001     49.438700000000004
C      46.610199999999999     46.416499999999999     47.050200000000004
C      50.204900000000002     48.844299999999997     47.112200000000001
C      50.185800000000008     47.564200000000000     46.377800000000001
C      46.433799999999998     47.267299999999999     49.282999999999994
C      45.918199999999999     46.480599999999995     48.248600000000003
H      49.333499999999994     50.180100000000003     48.756900000000002
H      48.725000000000001     46.127800000000001     45.486600000000003
H      48.068100000000001     48.020599999999995     50.513399999999997
H      46.344900000000003     45.819899999999997     46.133200000000002
H      51.212600000000002     49.450300000000006     47.050200000000004
H      51.027299999999990     47.052499999999995     46.097600000000007
H      46.044599999999996     47.661699999999996     50.322800000000008
H      44.787399999999998     46.354599999999998     48.225800000000000
