38

C      48.256850000000000     47.457399999999993     46.095269999999999
C      49.679350000000007     47.372199999999999     46.443789999999993
C      49.359749999999998     52.036500000000004     46.444860000000006
C      47.609349999999999     48.810700000000004     46.053719999999998
C      50.178850000000004     48.361699999999992     47.372010000000003
C      48.194250000000004     51.299199999999999     46.865690000000001
C      49.690050000000006     50.238500000000002     49.041380000000004
C      48.439650000000007     49.745300000000000     46.832660000000004
C      49.519950000000001     49.540300000000009     47.766840000000002
C      47.508550000000007     46.301299999999998     45.816180000000003
C      48.208649999999999     44.841500000000003     45.913220000000010
C      49.574649999999998     44.900399999999998     45.908470000000008
C      50.249550000000006     46.090600000000002     46.131920000000008
C      46.103249999999996     46.364600000000003     45.788010000000000
C      45.571050000000007     45.070200000000000     45.477630000000005
C      46.098949999999995     43.729399999999998     45.508440000000007
C      47.426549999999999     43.728999999999999     45.814059999999998
C      48.605449999999998     51.063099999999999     49.383380000000002
C      48.190450000000006     50.960400000000000     50.849879999999999
C      50.184350000000002     52.985199999999999     45.937210000000007
H      45.713650000000008     41.996200000000002     44.682079999999999
H      50.991450000000007     47.910299999999999     47.903760000000005
H      47.377050000000004     51.721899999999998     46.319850000000002
H      50.575750000000006     49.990800000000000     49.625280000000004
H      49.889850000000003     43.928000000000004     45.700010000000006
H      51.364550000000001     45.771200000000000     46.154760000000010
H      45.495650000000005     47.159399999999998     45.984260000000006
H      44.635449999999999     45.207799999999999     45.101810000000000
H      47.853749999999998     42.773000000000003     45.730640000000008
H      47.161650000000002     50.400199999999998     51.031280000000010
H      48.147449999999999     52.070500000000003     51.092780000000005
H      46.487349999999999     48.653500000000001     44.639620000000008
H      49.961850000000005     54.003799999999998     45.643960000000007
H      51.212550000000000     53.057400000000001     46.231549999999999
H      48.941049999999997     50.428900000000006     51.360379999999992
O      47.937649999999998     51.423600000000000     48.326020000000000
O      45.376750000000008     42.530000000000001     45.353240000000000
O      46.778650000000006     49.437200000000004     45.180480000000003
