92

C      44.500149999999991     50.337649999999996     43.952624999999991
C      43.947950000000006     49.186490000000006     43.316224999999989
C      42.166150000000002     51.985090000000000     40.373624999999990
C      44.584850000000003     51.640559999999994     43.192124999999990
C      43.362150000000000     49.243039999999993     42.010624999999990
C      42.674049999999994     52.799340000000001     41.496825000000001
C      43.413749999999993     51.824829999999992     42.157224999999997
C      43.107849999999999     50.513069999999999     41.583624999999998
C      45.338350000000005     50.269130000000004     45.126724999999993
C      45.254450000000006     49.056389999999993     45.834724999999992
C      44.614250000000013     47.851799999999997     45.346624999999989
C      43.663650000000004     47.885310000000004     44.262824999999992
C      46.276250000000005     51.353660000000005     45.334924999999998
C      47.538150000000002     51.073359999999994     46.239324999999994
C      47.072050000000004     50.065070000000006     47.160524999999993
C      46.199950000000001     49.038539999999998     46.943624999999997
C      46.204449999999994     52.613529999999997     44.862024999999988
C      45.370850000000004     52.735009999999988     43.687224999999998
C      44.769149999999996     46.486369999999994     46.015524999999997
C      43.808049999999994     45.459220000000002     45.697424999999996
C      42.648849999999996     45.879840000000002     44.934124999999995
C      42.596549999999993     47.118939999999995     44.190424999999991
C      48.984650000000002     51.416300000000007     46.459924999999998
C      41.434449999999998     52.753190000000004     39.302824999999999
C      42.508449999999996     54.049409999999995     42.349424999999997
C      48.256250000000009     45.966110000000000     52.345924999999994
C      47.362750000000005     47.051379999999995     51.713924999999989
C      46.975750000000005     42.993710000000007     48.688124999999999
C      46.103549999999998     44.198710000000020     48.043824999999998
C      48.289750000000012     44.704281699999996     51.670724999999990
C      46.648049999999998     46.642690000000002     50.607324999999989
C      47.364549999999994     43.090609999999998     49.953924999999998
C      45.800250000000005     45.176776000000004     48.896324999999990
C      47.136250000000004     44.141109999999998     50.863324999999989
C      46.555350000000004     45.315782999999996     50.194125000000000
C      49.080449999999999     46.356949999999998     53.436731000000002
C      49.095849999999999     47.739379999999997     54.019178999999994
C      48.148150000000001     48.583290000000005     53.487625999999999
C      47.318850000000012     48.373840000000001     52.306624999999997
C      47.051850000000002     42.134010000000004     46.631024999999994
C      46.216049999999996     42.896510000000021     45.887924999999996
C      45.556250000000006     43.936010000000010     46.687924999999993
C      50.368950000000012     45.630347000000000     53.594050000000010
C      51.199150000000003     45.862570000000005     54.736654999999999
C      51.383849999999995     47.337090000000003     55.174504999999996
C      50.264250000000004     48.103840000000005     54.935745000000011
C      50.696550000000002     44.905818999999994     52.361624999999989
C      49.683750000000003     44.234310000000008     51.611424999999997
C      51.946449999999999     44.866568999999998     55.231574999999999
C      52.376649999999998     47.498959999999997     56.270394999999994
C      53.604950000000002     46.555009999999996     55.896365000000003
C      54.790049999999994     46.905670000000001     56.777635000000004
C      44.238249999999994     44.217010000000002     46.203524999999999
H      43.153750000000002     47.400440000000003     41.739324999999994
H      47.868049999999997     50.040369999999996     48.015324999999990
H      46.340250000000012     48.165459999999996     47.555924999999988
H      46.679950000000005     53.594579999999993     45.293524999999988
H      45.232950000000002     53.957439999999991     43.506225000000001
H      45.397750000000002     46.665679999999995     46.915524999999988
H      42.098349999999996     45.083528000000001     44.474024999999997
H      41.842550000000003     47.259979999999999     43.230525000000000
H      49.394949999999994     51.997770000000003     45.470024999999993
H      41.280550000000005     53.927530000000004     39.667824999999993
H      42.247749999999996     52.717159999999993     38.474525000000000
H      42.831350000000000     53.640709999999999     43.357724999999988
H      41.489850000000004     54.627290000000002     42.066824999999994
H      43.558750000000003     54.472949999999997     42.222324999999998
H      40.131349999999998     51.514110000000002     38.281524999999988
H      46.077950000000001     47.418660000000003     50.125824999999992
H      47.918350000000004     42.245110000000025     50.528025000000000
H      44.870850000000004     45.852800000000002     48.615324999999999
H      48.402550000000005     49.626980000000003     53.579325000000011
H      46.118449999999996     48.403409999999994     52.191424999999995
H      47.718549999999993     41.372709999999998     46.044224999999997
H      45.989650000000012     42.750410000000002     44.849525000000000
H      50.041450000000012     49.000829999999993     55.464585000000000
H      50.063749999999999     43.800310000000010     50.711624999999998
H      51.352350000000001     43.780510000000007     54.845425000000006
H      54.047749999999994     46.876379999999997     54.866264999999999
H      51.873649999999998     44.321110000000004     50.926424999999995
H      55.868650000000002     47.619590000000002     56.142465000000001
H      54.393650000000008     47.453190000000006     57.718475000000012
H      55.273849999999996     46.073760000000007     57.450415000000007
H      43.483350000000002     43.439909999999998     45.758424999999988
N      42.257850000000005     50.719750000000005     40.489924999999999
N      47.349550000000008     42.066810000000018     47.928524999999993
O      49.921049999999994     50.854119999999995     47.049824999999998
O      42.686849999999993     48.182429999999997     41.359224999999995
O      40.169950000000000     52.336959999999991     38.867124999999987
O      53.078950000000006     45.100655000000003     55.871704999999992
O      52.414550000000006     48.221159999999998     57.227525000000000
O      51.924750000000003     44.864401000000001     51.833224999999999
