18

C      49.040199999999984     47.822449999999989     48.594449999999988
C      47.749099999999991     47.132050000000007     48.399149999999992
C      49.735999999999997     48.025150000000011     47.460649999999994
C      47.394900000000000     46.202350000000010     47.355649999999997
C      49.132799999999996     48.516450000000006     49.815849999999998
C      46.660199999999996     47.828950000000006     48.845549999999996
C      49.401199999999996     47.162350000000004     46.497850000000000
C      48.247700000000002     46.199550000000002     46.313849999999995
C      48.088500000000003     49.422849999999997     50.164449999999995
C      46.850100000000005     48.840950000000007     49.884049999999988
H      47.922999999999995     45.618650000000002     45.293149999999997
H      50.405300000000004     48.927350000000004     47.469449999999995
H      46.404299999999999     45.636750000000006     47.560249999999996
H      50.143099999999997     48.754149999999996     49.958749999999995
H      45.594699999999996     47.932550000000006     48.441249999999997
H      50.242200000000004     47.293549999999996     45.812649999999991
H      48.042600000000000     50.381349999999998     50.706850000000003
H      45.989899999999999     49.581550000000007     50.018049999999995
