18

C      47.178249999999991     47.426174999999994     48.149494999999995
C      47.766050000000000     48.775324999999995     48.541494999999998
C      47.023750000000000     47.258264999999994     46.724135000000004
C      47.794149999999995     49.815655000000007     47.676995000000005
C      46.996249999999996     46.480114999999998     49.181395000000002
C      48.587749999999993     48.766355000000004     49.678695000000005
C      46.725850000000001     48.487474999999996     46.019895000000005
C      47.021349999999998     49.736255000000000     46.550134999999997
C      47.678750000000001     46.502474999999997     50.333795000000009
C      48.790849999999999     47.442104999999998     50.278095000000000
H      46.686949999999996     46.351254999999995     46.237135000000002
H      48.365749999999998     50.598455000000001     47.629995000000001
H      46.312750000000001     45.401544999999999     49.141795000000002
H      49.350049999999989     49.557355000000001     50.133195000000001
H      46.354149999999997     48.425844999999995     44.871105000000000
H      46.624049999999997     50.549754999999998     45.975365000000004
H      47.524349999999998     45.708064999999998     51.128895000000000
H      49.687249999999999     47.281844999999997     50.891195000000010
