18

C      47.346585499999989     47.952949999999994     48.622949999999996
C      48.431245500000003     47.447150000000001     47.702449999999999
C      46.542405500000001     46.870150000000002     49.006450000000001
C      49.103895500000007     46.170450000000002     47.841250000000002
C      47.112455500000010     49.335549999999998     48.645849999999996
C      48.697025500000009     48.284250000000000     46.672049999999999
C      47.301755499999999     45.739249999999998     49.275050000000007
C      48.735075500000008     45.623449999999998     49.077449999999999
C      48.118605500000015     50.309550000000002     48.070450000000001
C      48.547265500000009     49.662549999999996     46.854649999999999
H      48.444895500000001     51.258049999999997     48.264450000000004
H      45.873194499999997     46.883049999999997     49.760050000000007
H      50.126805500000003     46.297550000000001     47.420549999999999
H      49.511295500000003     47.984150000000000     45.979050000000001
H      46.978165500000003     44.972450000000002     50.020949999999999
H      49.418965500000013     44.741950000000003     49.479450000000000
H      46.114499500000008     49.549250000000001     49.286950000000004
H      49.303585500000011     50.041650000000004     46.055950000000003
