18

C      47.277849999999994     48.030749999999991     47.734749999999991
C      48.515249999999995     48.118250000000003     48.420150000000007
C      46.534050000000001     46.862449999999995     48.023849999999996
C      48.603449999999995     47.673249999999996     49.803849999999997
C      47.218850000000003     48.555350000000004     46.398349999999994
C      49.459049999999998     49.157950000000000     48.086749999999995
C      46.691450000000003     46.064250000000001     49.220450000000000
C      47.698149999999998     46.706450000000004     50.043550000000010
C      48.262749999999997     49.436350000000004     46.048550000000006
C      49.282250000000005     49.938350000000000     46.933549999999997
H      45.762650000000001     46.319550000000007     47.439350000000005
H      49.258150000000001     48.008550000000000     50.409350000000003
H      46.486149999999995     48.074449999999999     45.835549999999998
H      50.237349999999999     49.797250000000005     48.642250000000004
H      46.366450000000000     45.190150000000003     49.845050000000001
H      48.470550000000003     49.896450000000002     44.994950000000003
H      49.848150000000004     50.809849999999997     46.648849999999996
H      47.775750000000002     46.000850000000000     51.005049999999997
