18

C      47.849674999999991     48.527299999999997     48.599199999999989
C      47.633364999999998     47.465200000000003     47.722200000000001
C      48.794244999999997     48.360100000000010     49.732299999999995
C      48.706534999999995     46.455200000000012     47.654799999999994
C      47.008305000000000     49.677800000000012     48.456500000000005
C      46.589549999999996     47.424700000000009     46.676900000000003
C      49.572544999999998     47.150700000000008     49.782200000000003
C      49.667444999999994     46.286000000000008     48.550399999999996
C      46.072158999999999     49.650500000000001     47.489599999999996
C      46.284070999999997     48.779900000000005     46.352599999999995
H      48.863405000000000     48.939399999999999     50.524299999999997
H      48.935594999999999     45.640599999999999     46.875299999999996
H      46.859634999999997     50.297200000000011     49.475700000000003
H      46.715634999999999     46.723600000000012     45.729500000000002
H      50.499485000000000     46.946900000000007     50.587199999999996
H      50.560915000000001     45.560600000000001     48.306200000000004
H      45.439084999999999     50.439399999999999     47.159599999999998
H      45.652585000000009     49.099700000000006     45.412800000000004
