78

C      46.726749999999996     52.990800000000000     47.456549999999993
C      45.758949999999999     51.940100000000001     47.638050000000000
C      51.982249999999993     43.434899999999999     49.321050000000007
C      50.513949999999994     43.366900000000001     49.448250000000009
C      47.754549999999995     52.743800000000007     48.352450000000012
C      45.969949999999997     50.638599999999997     47.915550000000003
C      52.889949999999999     44.313800000000001     49.816750000000006
C      49.818650000000005     44.625700000000009     49.449950000000008
C      48.815849999999998     51.031800000000004     50.147150000000003
C      47.448049999999995     48.984700000000004     48.799950000000003
C      50.128450000000001     49.215800000000002     51.482350000000004
C      49.148550000000000     47.293199999999999     49.778250000000007
C      47.901949999999985     51.528500000000008     49.104250000000000
C      47.237449999999995     50.280600000000007     48.746250000000011
C      52.261449999999996     45.657300000000006     50.165350000000011
C      49.102050000000006     49.683300000000003     50.452150000000010
C      48.698750000000004     48.658299999999997     49.584350000000008
C      50.922849999999997     48.083900000000000     51.080950000000009
C      50.741050000000001     45.640100000000004     49.956050000000012
C      50.256249999999994     46.923000000000002     50.500650000000000
C      48.498649999999998     44.937200000000004     48.928750000000001
C      48.231949999999998     46.240899999999996     48.945050000000002
C      47.106049999999996     46.700699999999998     48.293450000000000
C      46.426249999999996     48.047600000000003     48.495050000000013
C      44.988150000000005     48.248300000000000     48.449750000000002
C      44.860950000000003     49.610200000000006     48.121650000000010
C      46.460549999999998     53.948000000000008     46.256650000000000
C      44.999549999999999     54.145800000000008     45.958950000000009
C      44.000550000000004     53.294800000000009     46.195250000000009
C      44.300849999999997     52.182800000000000     47.096550000000001
C      43.178950000000000     51.611400000000003     47.428450000000005
C      43.619349999999997     50.305300000000003     47.868650000000009
C      48.959949999999992     53.687600000000003     48.416450000000005
C      47.009749999999997     54.813600000000008     44.347350000000013
C      47.468549999999993     54.373500000000007     45.505250000000011
C      49.951250000000002     42.291600000000003     48.639950000000006
C      50.410349999999994     41.078699999999998     48.812150000000010
C      47.555549999999997     43.940500000000000     48.298150000000000
C      49.151749999999993     52.047200000000004     51.088950000000004
C      49.653250000000000     51.565700000000007     52.338950000000004
C      50.187349999999995     50.161799999999999     52.666750000000000
C      46.064549999999997     54.458600000000004     43.621950000000005
C      47.433549999999997     56.221100000000007     43.931850000000004
C      50.698049999999995     39.897000000000006     47.885550000000002
C      49.901549999999986     39.519199999999998     46.774350000000005
C      53.375749999999996     48.292900000000003     51.274250000000002
H      52.241349999999997     42.581600000000009     48.642550000000007
H      53.939949999999996     44.102100000000007     50.047650000000012
H      52.522149999999996     45.791800000000009     51.175350000000002
H      46.835149999999999     45.921999999999997     47.529350000000001
H      44.211550000000003     47.477800000000002     48.262050000000009
H      44.617649999999998     55.160100000000000     45.762950000000011
H      43.114450000000005     53.696899999999999     45.925850000000004
H      42.060050000000004     51.804699999999997     47.341650000000008
H      42.567849999999993     49.880700000000004     48.113550000000011
H      48.697549999999993     54.710599999999999     48.383950000000006
H      49.689549999999997     52.960300000000004     48.973650000000013
H      48.550549999999987     54.539200000000008     45.918050000000001
H      49.087549999999993     42.381200000000007     47.989950000000000
H      46.831950000000006     44.367599999999996     47.572450000000011
H      51.185050000000004     41.190700000000007     49.711750000000002
H      46.924149999999997     43.452700000000007     48.968550000000000
H      47.666749999999993     42.995500000000007     47.441150000000000
H      48.956750000000000     53.079000000000008     50.889250000000011
H      49.667050000000003     53.493700000000004     47.421150000000004
H      49.741849999999999     52.417200000000008     53.110150000000012
H      50.938549999999992     49.969499999999996     53.532750000000000
H      49.133849999999995     49.789000000000001     53.333550000000010
H      46.057850000000002     54.612600000000000     42.467250000000000
H      45.853949999999998     53.463800000000006     43.954350000000012
H      46.822549999999993     56.980699999999999     44.541650000000011
H      47.658850000000001     56.325800000000001     42.853150000000007
H      48.249449999999996     56.466999999999999     44.529850000000003
H      52.794250000000005     46.453500000000005     49.649950000000011
H      51.344949999999997     39.144500000000008     48.294050000000006
H      49.083950000000002     40.242500000000007     46.476950000000009
H      50.339950000000002     39.019300000000001     45.953550000000000
N      52.269450000000006     48.234200000000001     51.036550000000013
