18

C      47.369149999999998     47.736599999999989     48.190999999999988
C      48.747150000000005     47.893699999999995     47.736400000000003
C      46.501050000000006     47.539699999999996     47.098500000000001
C      49.254549999999995     48.352800000000002     46.498199999999997
C      46.747250000000001     47.925100000000000     49.527100000000004
C      49.561850000000007     48.179400000000001     48.916300000000007
C      46.777750000000005     47.890900000000002     45.860199999999992
C      48.120250000000013     48.355900000000005     45.494699999999995
C      47.676450000000003     47.923400000000001     50.535899999999998
C      49.019750000000002     48.156199999999998     50.214199999999991
H      45.353350000000006     47.215900000000005     47.547499999999999
H      50.239549999999994     48.784099999999995     46.421099999999996
H      45.645750000000007     47.845500000000001     49.782499999999999
H      50.646649999999994     48.700100000000006     48.932099999999991
H      45.708950000000002     47.814099999999996     45.191999999999993
H      48.007649999999998     48.750600000000006     44.425600000000003
H      47.294550000000001     48.059600000000003     51.574399999999997
H      49.621050000000004     48.181200000000004     51.198799999999991
