18

C      48.533649999999994     48.010349999999995     48.485869999999991
C      47.587449999999997     48.517250000000004     47.275340000000000
C      48.369749999999996     48.487250000000003     49.851480000000009
C      46.910649999999997     49.653550000000003     47.570779999999999
C      49.351949999999995     46.991750000000003     48.235420000000005
C      47.565649999999998     47.788150000000002     46.075569999999999
C      47.542049999999996     49.587249999999997     50.038970000000006
C      47.107450000000000     50.224649999999997     48.873780000000011
C      49.225250000000003     46.060050000000004     47.110520000000008
C      48.474249999999998     46.669150000000002     46.050880000000006
H      46.858449999999998     48.068750000000001     45.225080000000005
H      48.997549999999997     47.897450000000006     50.627459999999999
H      46.001950000000001     50.097350000000006     47.036920000000009
H      49.998049999999999     46.626550000000002     48.963490000000007
H      47.414050000000003     50.193650000000005     51.005330000000001
H      46.430549999999997     51.044449999999998     49.083590000000001
H      49.426949999999998     44.955550000000002     47.096760000000003
H      48.494250000000001     46.299149999999997     44.994669999999999
