18

C      47.560449999999989     48.224859999999993     48.754849999999990
C      48.079050000000002     47.763170000000002     47.586749999999995
C      46.694749999999992     47.587660000000000     49.521049999999995
C      47.896549999999998     46.381649999999993     47.199149999999996
C      47.399249999999995     49.712980000000002     48.787849999999999
C      48.708949999999994     48.644180000000006     46.622349999999997
C      46.834849999999996     46.141210000000001     49.309049999999992
C      47.698850000000000     45.571669999999997     48.325349999999993
C      48.373249999999992     50.512379999999993     48.184949999999994
C      48.952350000000003     49.982479999999995     46.907149999999994
H      46.273350000000001     48.120369999999994     50.442450000000001
H      48.392249999999997     46.051469999999995     46.305149999999998
H      46.482349999999997     50.268379999999993     49.331049999999998
H      48.951549999999990     48.306060000000002     45.557549999999999
H      46.319849999999995     45.462379999999996     50.217749999999988
H      47.687649999999998     44.428619999999995     48.156950000000002
H      48.174649999999993     51.571380000000005     48.321449999999992
H      49.726649999999999     50.513679999999994     46.507550000000002
