18

C      47.846437999999992     48.866849999999992     47.812899999999985
C      48.107187999999994     47.415750000000003     48.449499999999993
C      48.560918000000001     49.830649999999999     48.584699999999991
C      49.094937999999985     47.421549999999996     49.458599999999997
C      47.029927999999998     48.986249999999998     46.680299999999995
C      47.354787999999999     46.428150000000002     47.948199999999993
C      49.780197999999984     49.709150000000008     49.430000000000000
C      49.770617999999999     48.440550000000002     50.028199999999991
C      46.425957999999994     47.889949999999999     45.978999999999992
C      46.440817999999993     46.689050000000002     46.783799999999992
H      48.065057999999993     50.705550000000002     48.184999999999995
H      49.139898000000002     46.364249999999998     49.685099999999998
H      46.928987999999990     49.779750000000007     46.013600000000004
H      47.590828000000002     45.294449999999998     48.352399999999996
H      50.283747999999989     50.646250000000002     49.953399999999995
H      50.421678000000000     48.395649999999996     50.847799999999999
H      45.756067999999999     47.983249999999998     45.152200000000001
H      45.578322000000000     46.030850000000001     46.789999999999999
