18

C      47.874249999999989     47.633202999999995     47.213199999999993
C      47.885249999999999     48.120113000000003     48.570600000000013
C      48.110649999999993     46.338445000000000     46.850700000000003
C      48.326350000000005     47.254645000000018     49.603000000000009
C      47.392849999999996     48.579834999999996     46.251300000000001
C      47.838449999999995     49.542065000000001     48.892800000000008
C      48.874150000000000     45.625345000000010     47.811800000000005
C      48.807750000000013     46.031945000000015     49.133000000000010
C      47.161050000000003     49.835465000000006     46.679300000000005
C      47.264949999999999     50.394415000000002     48.038500000000006
H      47.201350000000005     51.363255000000002     48.480700000000013
H      48.362250000000003     46.129545000000014     45.838900000000002
H      48.174550000000011     47.371064500000003     50.684899999999999
H      47.264049999999997     48.238401000000003     45.315100000000001
H      49.320750000000004     44.636744999999998     47.574299999999994
H      49.108750000000001     45.392645000000023     49.877300000000005
H      46.679249999999996     50.508455000000005     46.067100000000003
H      48.090750000000000     49.779185000000005     49.797600000000003
