18

C      47.391399999999997     47.190599999999989     48.030799999999999
C      48.558500000000009     47.597099999999998     48.652400000000000
C      47.495599999999996     46.704599999999999     46.730599999999995
C      49.882400000000004     47.317200000000000     47.908100000000005
C      46.047499999999999     47.758400000000009     48.603499999999997
C      48.617100000000001     48.426000000000016     49.780400000000000
C      48.775700000000001     46.540500000000009     46.055400000000006
C      50.038299999999992     46.789000000000001     46.673299999999998
C      46.162399999999998     48.660900000000012     49.694999999999993
C      47.438200000000002     48.855199999999996     50.281099999999995
H      46.507400000000004     46.381299999999996     46.159999999999997
H      50.786700000000010     47.792000000000002     48.348500000000001
H      45.012500000000003     47.499800000000008     48.463799999999992
H      49.456499999999991     49.160899999999998     50.297100000000000
H      48.800299999999993     46.527799999999999     44.979600000000005
H      50.987499999999997     46.744000000000000     46.028199999999998
H      45.313299999999998     49.357000000000014     50.097899999999996
H      47.772200000000005     49.618700000000004     51.020399999999995
