16

C      47.457699999999996     47.147708999999992     49.332299999999989
C      47.392899999999997     48.547148999999997     49.012299999999996
C      48.585800000000006     49.353898999999998     49.170000000000002
C      49.749600000000001     48.638009000000004     49.582099999999997
C      49.898099999999999     47.215978999999997     49.559500000000000
C      48.695800000000006     46.621499000000000     49.810800000000000
C      46.297600000000003     48.898778999999998     48.067200000000000
C      46.815200000000004     49.105528999999997     46.835200000000000
H      46.753700000000009     46.384359000000003     49.791399999999996
H      48.713400000000007     50.376438999999998     48.870100000000008
H      50.665199999999999     49.127669000000004     49.604300000000009
H      50.781700000000001     46.716479000000000     49.313400000000001
H      48.530000000000001     45.623561000000002     50.058800000000005
H      46.521799999999999     49.804078999999994     45.941199999999995
H      47.977900000000005     49.059159000000001     46.829800000000006
O      45.218299999999999     49.040869000000001     48.512699999999995
