8

C      47.461899999999986     47.929599999999994     47.630199999999988
C      48.819699999999997     47.921600000000005     48.442999999999998
H      47.719900000000010     47.592499999999994     46.562899999999999
H      47.097200000000001     48.974700000000006     47.625799999999998
H      46.632099999999994     47.377900000000004     47.941299999999984
H      49.367900000000006     47.025299999999994     48.726900000000001
H      49.121499999999997     48.789899999999996     47.991099999999989
H      48.569199999999995     48.066200000000002     49.437100000000001
