18

C      47.909749999999981     47.444699999999990     47.570599999999999
C      48.500649999999993     48.512799999999999     48.319700000000005
C      47.446449999999999     47.399600000000000     46.188800000000001
C      48.943249999999992     49.654200000000003     47.646499999999996
C      47.651550000000000     46.202700000000000     48.321300000000001
C      48.568349999999995     48.165799999999997     49.843500000000013
C      47.759050000000002     48.568699999999993     45.473400000000005
C      48.395150000000001     49.638000000000005     46.373300000000000
C      47.346849999999989     46.113500000000002     49.656700000000001
C      47.655149999999992     47.357100000000003     50.503100000000003
H      46.648550000000000     46.750500000000002     45.680700000000002
H      49.351450000000000     50.721400000000003     47.848700000000001
H      47.783349999999999     45.278599999999997     47.704299999999996
H      49.182049999999990     48.821299999999994     50.331100000000006
H      47.531149999999997     48.863399999999999     44.454200000000000
H      48.665649999999999     50.619200000000006     45.793800000000005
H      47.120149999999995     45.364899999999999     50.320700000000002
H      47.890549999999990     47.144399999999997     51.545800000000000
