23

C      46.797999999999995     47.133199999999995     45.593019499999990
C      45.962000000000003     46.100399999999993     45.958719500000001
C      49.220599999999990     47.169100000000000     48.437419499999990
C      49.309100000000001     48.563999999999993     48.779219499999996
C      50.161999999999992     46.316000000000003     49.205219499999998
C      50.139699999999991     49.193100000000001     49.884619499999999
C      48.185499999999990     46.822199999999995     47.516919500000000
C      48.630399999999995     49.528599999999997     48.026819500000002
C      50.843800000000002     46.807099999999991     50.298819499999993
C      50.794299999999993     48.216099999999997     50.563919499999997
C      47.493099999999998     47.845799999999997     46.680719499999995
C      47.828499999999991     49.234299999999990     46.973519499999995
H      45.865499999999997     45.589599999999990     47.117119500000001
H      44.248699999999999     45.429000000000002     45.802319499999996
H      50.524500000000003     45.382999999999996     48.575219500000003
H      50.531700000000001     50.254499999999993     50.007319499999994
H      48.253199999999993     45.834699999999998     47.067419500000000
H      48.713899999999995     50.636499999999998     48.446819499999989
H      51.684699999999992     46.008200000000002     50.562419499999990
H      51.751300000000001     48.659599999999998     51.177880500000001
H      47.308499999999995     50.207599999999999     46.865919499999990
H      46.212400000000002     47.446399999999997     44.822119499999999
O      45.056200000000004     45.363500000000002     45.201419500000000
