5

C      48.229050000000001     47.880799999999994     48.136349999999993
H      47.060249999999996     47.605900000000005     48.176649999999995
H      48.939750000000004     47.122399999999999     48.532449999999997
H      48.670650000000009     48.121800000000007     47.287349999999996
H      48.127850000000009     48.877600000000001     48.712650000000004
