18

C      47.229349999999990     47.470699999999994     48.042299999999990
C      48.103850000000008     48.460979999999999     48.665899999999993
C      47.728949999999998     46.115530000000000     47.785899999999998
C      49.541349999999994     48.196680000000001     48.980999999999995
C      46.011350000000000     47.750480000000003     47.383600000000001
C      47.640949999999997     49.791879999999999     48.688599999999994
C      49.026249999999990     45.960879999999996     47.872099999999989
C      50.002749999999999     46.987230000000004     48.425399999999996
C      45.610650000000000     49.096280000000000     47.562699999999992
C      46.345549999999996     50.076479999999997     48.162499999999994
H      47.022849999999998     45.203789999999998     47.521199999999993
H      50.289349999999999     48.922580000000004     49.295800000000000
H      45.655349999999999     46.790379999999999     46.704200000000000
H      48.458549999999988     50.470579999999991     49.250900000000001
H      49.287750000000003     44.949620000000003     47.772599999999997
H      51.051349999999999     46.682989999999997     48.555599999999998
H      44.948650000000001     49.815980000000003     46.771999999999991
H      45.802749999999996     51.050379999999997     48.455699999999993
