54

C      51.275999999999996     48.247149999999998     52.174549999999989
C      45.721900000000005     45.650050000000000     44.988050000000001
C      51.304499999999990     48.139550000000000     49.475750000000005
C      50.065100000000001     51.935850000000002     46.457049999999995
C      51.669399999999996     49.509649999999993     49.114549999999994
C      50.838999999999999     51.509450000000001     47.489249999999998
C      46.647300000000001     45.187649999999998     46.036450000000002
C      46.178200000000004     46.745950000000001     44.306849999999997
C      50.759699999999995     47.263050000000000     48.493949999999998
C      49.553399999999996     50.736350000000002     45.631450000000001
C      48.933300000000003     46.152050000000003     46.832750000000004
C      48.135800000000003     48.462049999999998     44.838049999999996
C      51.231999999999999     50.176850000000002     47.849249999999998
C      47.751199999999997     46.122350000000004     45.923050000000003
C      47.319400000000002     47.191749999999999     44.923450000000003
C      50.791799999999995     47.819550000000000     47.009749999999997
C      50.126599999999996     49.444149999999993     45.671750000000003
C      49.649599999999992     47.227450000000005     46.311449999999994
C      49.476799999999997     48.225050000000003     45.168849999999992
C      51.041799999999995     49.176450000000003     46.774649999999994
C      50.171999999999997     45.990850000000002     48.782349999999994
C      48.977699999999999     45.544249999999998     48.168849999999992
C      48.305099999999996     50.596650000000004     44.834850000000003
C      47.534800000000004     49.569949999999992     44.248049999999992
C      47.780999999999992     45.093049999999998     48.980549999999994
C      45.956000000000003     44.544750000000001     47.176450000000003
C      51.593699999999998     47.572150000000001     50.864149999999995
C      46.721599999999995     44.062449999999998     48.279449999999997
C      44.617099999999994     44.809350000000002     44.164450000000002
C      44.734999999999999     44.369750000000003     47.099149999999995
C      45.317499999999995     47.720649999999999     43.449849999999998
C      50.366199999999992     45.216549999999998     50.070750000000004
H      51.329200000000000     49.458150000000003     52.286450000000002
H      50.063199999999995     52.759149999999998     45.861949999999993
H      52.600999999999999     50.034949999999995     49.646150000000006
H      51.395299999999992     52.424750000000003     48.233249999999998
H      47.722600000000000     51.509750000000004     45.066950000000006
H      46.612099999999998     49.426149999999993     43.460350000000005
H      47.023399999999995     45.898750000000000     48.805949999999996
H      48.084599999999995     44.808150000000005     50.096649999999997
H      51.710799999999992     46.317149999999998     51.130749999999992
H      47.959299999999999     43.651850000000003     47.670550000000006
H      46.675899999999999     43.240850000000002     49.030050000000003
H      44.120400000000004     45.145450000000004     46.360050000000001
H      44.464900000000000     45.386250000000004     43.270949999999999
H      43.399000000000001     44.965750000000000     44.519949999999994
H      44.051800000000000     44.352150000000002     47.876049999999992
H      44.701700000000002     43.696150000000003     44.198350000000005
H      44.751599999999996     48.232650000000000     44.217649999999992
H      46.048299999999998     48.350250000000003     42.964449999999999
H      44.446699999999993     47.300449999999998     43.200450000000004
H      49.844799999999992     45.447550000000000     51.126549999999995
O      50.661000000000001     47.831050000000005     53.035550000000001
O      50.643000000000001     44.042549999999999     50.194549999999992
