18

C      47.911799999999985     48.848049999999986     47.936650000000000
C      47.260700000000000     47.463449999999995     47.939250000000008
C      48.070999999999998     49.357650000000007     49.240850000000002
C      46.962599999999995     46.555149999999998     48.924550000000004
C      48.635900000000007     49.294150000000002     46.764450000000004
C      46.930899999999994     46.926249999999996     46.655350000000006
C      47.610799999999998     48.504350000000002     50.365150000000007
C      47.094099999999997     47.199050000000000     50.214350000000003
C      48.114699999999999     48.753450000000001     45.576650000000008
C      47.001700000000000     47.897750000000002     45.635050000000000
H      48.480599999999995     50.360249999999994     48.962949999999999
H      46.570499999999996     45.639750000000006     48.752150000000007
H      49.438500000000005     50.178150000000002     46.786750000000005
H      46.561499999999995     45.851550000000003     46.371450000000003
H      48.150099999999995     48.952250000000006     51.101550000000010
H      46.863199999999992     46.971750000000000     51.384250000000002
H      48.378499999999988     49.024749999999997     44.615749999999998
H      46.620199999999997     47.359849999999994     44.694949999999999
