18

C      48.646699999999996     48.100970000000004     47.635199999999998
C      47.396799999999999     47.836620000000011     48.381700000000002
C      49.934899999999999     47.725360000000009     48.034700000000008
C      47.669799999999995     47.739440000000002     49.802100000000003
C      48.664800000000000     48.171769999999995     46.223400000000005
C      46.176900000000003     48.134500000000003     47.842500000000008
C      49.907799999999995     47.069659999999999     49.349800000000009
C      48.978999999999999     47.450370000000007     50.368900000000004
C      47.441800000000001     48.511780000000002     45.570600000000006
C      46.356800000000007     48.518950000000004     46.479900000000008
H      50.793800000000005     47.838690000000000     47.413500000000006
H      46.925700000000006     47.602240000000009     50.559800000000003
H      49.673400000000001     48.433329999999998     46.043500000000002
H      45.122100000000003     48.027280000000005     48.129899999999999
H      50.877899999999997     46.940390000000008     49.725800000000000
H      49.091000000000008     47.539529999999999     51.440800000000003
H      47.202700000000007     48.278739999999999     44.559199999999997
H      45.438500000000005     49.059609999999992     46.038199999999996
