18

C      48.699449999999992     47.946704999999994     48.883399999999995
C      47.433650000000000     47.419505000000001     48.460400000000000
C      49.785950000000000     47.251045000000005     48.248500000000000
C      47.384550000000004     46.363785000000000     47.472500000000004
C      48.960149999999999     49.262305000000005     49.270699999999998
C      46.227649999999997     48.250175000000006     48.700799999999994
C      49.723450000000000     46.090055000000000     47.411499999999997
C      48.442850000000007     45.616505000000004     47.184400000000004
C      47.686850000000007     50.036765000000010     49.308399999999999
C      46.320750000000004     49.570365000000002     49.160000000000004
H      50.663250000000005     47.941635000000005     47.862900000000003
H      46.309849999999997     46.372645000000006     46.815900000000006
H      49.785950000000000     49.761365000000005     49.187700000000000
H      45.285049999999998     47.926205000000003     49.069300000000005
H      50.714950000000002     45.696475000000000     46.934300000000000
H      48.224850000000004     44.803035000000001     46.421500000000002
H      47.931550000000001     51.196964999999999     49.578499999999998
H      45.394350000000003     49.990265000000001     49.450700000000005
