18

C      47.666499999999999     48.655799999999999     48.420499999999997
C      48.482499999999995     47.438699999999997     48.171400000000006
C      46.345800000000004     48.347000000000008     47.959600000000009
C      48.012200000000000     46.410499999999999     47.335700000000003
C      48.083000000000006     49.900499999999994     48.937100000000001
C      49.931199999999997     47.685199999999995     48.373599999999996
C      45.618299999999998     47.245500000000007     47.420800000000000
C      46.545800000000007     46.189599999999999     47.100300000000004
C      49.476300000000002     49.987499999999997     49.033100000000005
C      50.362500000000004     49.032899999999998     48.772000000000006
H      45.896000000000008     49.371899999999997     48.101700000000008
H      48.914700000000003     45.657799999999995     47.006100000000004
H      47.352600000000002     50.634299999999996     48.770899999999997
H      50.463900000000002     47.060000000000002     47.758800000000008
H      44.441700000000004     47.329999999999998     46.966899999999995
H      46.093300000000006     45.083700000000007     46.967600000000004
H      50.225199999999994     50.916299999999993     48.930199999999999
H      51.558299999999996     49.006900000000002     48.792500000000004
