18

C      47.466299999999990     47.761149999999994     48.505249999999990
C      47.820500000000003     48.340249999999997     47.187449999999998
C      47.631300000000003     46.358449999999998     49.146950000000004
C      48.528500000000001     47.423850000000002     46.450850000000003
C      47.638100000000001     48.645750000000007     49.612150000000014
C      47.238100000000010     49.694649999999996     46.829650000000001
C      48.347299999999997     45.657150000000001     48.114949999999993
C      48.832600000000006     46.091349999999998     46.864949999999993
C      47.312300000000000     49.910849999999996     49.378649999999993
C      46.967300000000002     50.386849999999995     47.989649999999997
H      47.901699999999998     46.013149999999996     50.205550000000002
H      48.952900000000007     47.647050000000000     45.380150000000000
H      47.629600000000003     48.364949999999993     50.619850000000000
H      47.485999999999997     50.091850000000008     45.909850000000006
H      48.430600000000005     44.675950000000000     48.566750000000013
H      49.595300000000002     45.548650000000002     46.288550000000001
H      47.510100000000001     50.759850000000000     50.151949999999999
H      46.404699999999998     51.324050000000000     47.741450000000000
