43

C      47.791750000000000     50.389199999999988     51.894950000000001
C      44.068750000000009     50.122000000000000     45.374949999999998
C      43.868350000000007     50.983500000000006     46.416850000000004
C      44.362949999999998     48.929100000000005     44.559650000000005
C      49.282250000000005     48.564599999999999     48.822450000000003
C      49.159750000000003     48.946799999999996     50.195150000000005
C      50.625250000000008     48.021299999999997     48.584650000000003
C      50.165949999999995     48.848200000000006     51.233149999999995
C      46.927450000000007     49.480699999999999     48.165550000000003
C      47.825150000000008     49.475600000000000     50.650350000000003
C      51.581750000000000     47.816999999999993     49.483650000000004
C      51.299250000000001     48.071899999999999     50.849450000000004
C      46.984049999999996     49.876599999999996     49.643850000000000
C      48.306150000000002     48.137199999999993     45.389749999999999
C      48.485749999999996     47.786100000000005     46.773550000000000
C      48.102649999999997     49.452100000000002     44.649850000000001
C      48.297550000000001     48.739699999999999     47.851350000000004
C      48.231750000000005     46.929199999999994     44.555350000000004
C      48.824550000000002     46.377899999999997     46.958350000000003
C      46.717749999999995     49.671300000000002     44.244550000000004
C      45.724050000000005     48.626899999999992     44.285250000000005
C      48.154250000000005     45.457799999999992     44.850450000000002
C      48.301649999999995     45.256199999999993     46.208649999999999
H      48.067049999999995     51.745200000000011     52.111550000000008
H      47.275149999999996     49.712699999999998     52.490449999999996
H      48.949849999999998     50.518100000000004     52.124849999999995
H      43.779949999999999     52.000100000000003     46.441050000000004
H      43.912549999999996     50.616399999999999     47.465450000000004
H      43.522750000000002     48.205100000000002     44.193650000000005
H      50.979749999999996     47.814700000000002     47.486850000000004
H      49.863749999999996     49.273399999999995     52.185850000000002
H      46.194950000000006     48.749399999999994     47.826350000000005
H      52.477249999999998     47.232100000000003     49.199550000000002
H      52.044150000000002     47.739199999999997     51.574650000000005
H      46.206350000000000     50.522099999999995     49.998750000000001
H      48.885450000000006     50.298299999999998     44.453850000000003
H      46.517250000000004     50.388999999999996     47.508650000000003
H      47.970650000000006     47.328000000000003     43.662750000000003
H      49.025149999999996     46.082599999999999     47.983750000000001
H      46.447249999999997     50.491500000000002     43.509550000000004
H      45.855649999999997     47.963799999999992     43.571449999999999
H      48.162450000000007     44.692399999999992     44.015149999999998
H      48.563249999999996     43.999899999999997     46.108950000000000
