18

C      47.346499999999992     47.333749999999995     47.771399999999993
C      48.476399999999998     48.238650000000000     47.789200000000008
C      46.206900000000005     47.836549999999995     48.591099999999997
C      48.445499999999996     49.791850000000004     47.906100000000009
C      47.608999999999995     45.989150000000002     47.404699999999998
C      49.792599999999993     47.729850000000006     47.945800000000006
C      45.974099999999993     49.200849999999996     48.518000000000001
C      47.086799999999997     50.013050000000000     47.955900000000000
C      48.952099999999987     45.776850000000003     46.943700000000000
C      49.997599999999991     46.640549999999998     46.996400000000001
H      49.256599999999992     44.933349999999997     46.386299999999999
H      45.801500000000004     47.463150000000006     49.613700000000001
H      49.308099999999996     50.442150000000005     47.706499999999998
H      46.694599999999994     45.484349999999999     47.014099999999999
H      50.594300000000004     48.364250000000006     48.243099999999998
H      45.061800000000005     49.635849999999998     49.016500000000001
H      46.715000000000003     51.066650000000003     47.767299999999999
H      50.938199999999995     46.439349999999997     46.400199999999998
