58

C      46.408788999999999     47.452504999999988     45.072049999999997
C      51.020088999999999     46.610214999999990     50.095250000000007
C      47.514048999999986     48.552114999999993     44.987350000000006
C      51.120458999999997     48.033814999999983     49.552049999999994
C      46.759518999999997     46.179254999999991     45.692850000000007
C      50.161218999999988     45.580524999999994     49.553449999999998
C      48.663478999999995     48.498504999999994     45.804950000000005
C      50.346749000000003     48.235534999999992     48.464849999999998
C      48.213178999999997     44.985264999999991     47.587149999999994
C      47.864428999999987     46.121924999999990     46.574950000000001
C      49.355288999999999     45.890724999999989     48.460449999999994
C      48.713739000000004     47.308914999999992     46.679950000000005
C      49.355339000000001     47.219634999999990     47.969650000000001
C      49.423219000000003     49.624364999999990     46.269649999999999
C      50.102398999999991     49.360014999999997     47.619249999999994
C      45.194148999999996     47.701064999999993     44.526449999999997
C      45.138808999999995     48.949074999999986     43.781949999999995
C      45.999319000000000     50.092084999999990     43.795450000000002
C      47.192808999999997     49.850514999999994     44.599450000000004
C      48.120308999999992     50.981484999999985     44.848450000000000
C      49.305298999999991     50.821024999999999     45.601749999999996
C      51.750338999999997     46.228844999999993     51.309749999999994
C      51.964698999999996     47.267254999999992     52.323449999999994
C      52.035928999999996     48.439604999999993     51.745149999999995
C      51.529558999999992     48.971904999999985     50.528750000000002
C      51.533248999999998     50.153654999999993     49.618849999999995
C      50.834278999999995     50.328654999999991     48.368150000000000
C      45.999218999999997     43.671497999999993     45.734650000000002
C      45.646288999999996     45.206654999999991     46.089749999999995
C      43.679849000000004     49.410374999999995     43.711050000000000
C      44.681398999999999     45.225484999999992     46.998949999999994
C      49.373908999999998     44.795394999999992     50.622249999999994
C      50.116518999999997     52.092324999999995     45.721149999999994
H      48.928828999999993     44.224591999999994     46.996849999999995
H      44.270989000000000     47.179074999999990     44.552549999999997
H      45.680938999999995     51.203664999999994     43.586349999999996
H      47.774798999999987     52.021814999999997     44.531949999999995
H      51.946328999999992     45.135294999999992     51.661550000000005
H      52.302438999999993     47.021214999999991     53.272450000000006
H      53.008838999999995     49.050044999999990     53.141750000000002
H      51.889018999999990     50.976224999999992     49.935050000000004
H      50.602918999999986     51.433514999999993     48.104349999999997
H      47.011998999999989     43.134625000000007     45.581149999999994
H      45.712169000000003     43.306424999999997     46.673349999999999
H      45.177348999999992     43.299824999999991     45.051450000000003
H      43.115779000000003     48.791344999999986     44.461950000000002
H      42.991161000000005     49.141304999999996     42.727549999999994
H      43.885249000000002     44.493041999999996     47.290549999999996
H      44.499199000000004     46.127874999999996     47.525450000000006
H      48.586028999999996     44.261204999999990     50.132350000000002
H      48.988228999999990     45.443064999999990     51.516149999999996
H      49.903768999999997     44.179281999999994     51.360450000000000
H      49.363238999999993     52.865374999999993     45.697749999999999
H      50.965108999999998     52.339565000000000     45.017849999999996
H      50.877218999999997     52.105004999999998     46.658850000000001
H      43.517758999999998     50.586414999999995     43.956649999999996
H      47.603928999999994     45.005264999999994     48.489549999999994
O      52.660938999999999     49.437374999999996     52.362350000000006
