38

C      45.358499999999992     48.549849999999992     51.165699999999994
C      45.518400000000000     47.593150000000001     50.209400000000002
C      50.764999999999993     47.831750000000007     44.504300000000001
C      45.874099999999999     49.850850000000001     50.811300000000003
C      50.574300000000001     49.256549999999997     44.545200000000001
C      50.260100000000001     47.380450000000003     45.787700000000001
C      45.791699999999999     48.001349999999995     48.806400000000004
C      48.720400000000005     50.723450000000007     45.810400000000001
C      48.052699999999994     48.086850000000005     47.035699999999999
C      49.430299999999995     49.514950000000006     45.502000000000002
C      49.321400000000004     48.333149999999996     46.337800000000001
C      45.933000000000000     50.377550000000006     49.517400000000002
C      48.203399999999995     50.654450000000004     47.033000000000001
C      46.372199999999999     49.254150000000003     48.364300000000000
C      47.512599999999999     49.384450000000008     47.617300000000000
C      46.256599999999999     46.754449999999999     48.307200000000002
C      47.365500000000004     46.854450000000007     47.340000000000003
C      50.952999999999996     44.959049999999998     45.215400000000002
C      50.208700000000000     45.878450000000008     45.988000000000000
C      45.471899999999998     46.167750000000005     50.530900000000003
C      45.983200000000004     45.624550000000006     49.263700000000000
C      44.675699999999999     45.332349999999998     51.429199999999994
H      45.289200000000001     47.996749999999999     52.205100000000002
H      51.208300000000001     47.275050000000000     43.794899999999998
H      45.713699999999996     50.668650000000007     51.449900000000000
H      51.254899999999999     49.903150000000004     44.027799999999999
H      47.982799999999997     51.574450000000006     47.302799999999998
H      50.701699999999995     43.983650000000004     45.001200000000004
H      51.975900000000003     45.455850000000005     44.674599999999998
H      47.898099999999999     45.926849999999995     47.088500000000003
H      49.431699999999999     45.422550000000008     46.688299999999998
H      46.287599999999998     44.383950000000006     49.209899999999998
H      44.024099999999997     45.869650000000000     51.958600000000004
H      44.616000000000000     44.199549999999995     51.148299999999999
H      45.622999999999998     51.783750000000005     48.197800000000001
H      49.718200000000003     51.694849999999995     44.438499999999998
N      45.628599999999999     51.560449999999996     49.203499999999998
O      49.142999999999994     52.016349999999996     45.174900000000001
