62

C      49.566099999999992     46.354100000000003     44.882599999999989
C      47.988599999999998     50.528600000000012     46.107999999999990
C      49.875700000000002     44.833300000000008     50.230899999999998
C      47.573900000000002     50.453300000000013     47.393599999999992
C      49.685200000000002     46.232400000000013     50.641499999999994
C      48.794699999999999     49.558700000000002     45.282699999999998
C      50.134399999999992     44.834299999999999     48.718800000000002
C      47.888900000000000     49.039800000000000     49.414699999999996
C      48.525999999999996     48.227999999999994     50.381500000000003
C      50.363899999999994     47.392300000000006     45.167000000000002
C      48.302700000000002     49.194300000000013     47.951800000000006
C      49.310499999999998     47.188800000000001     49.679299999999998
C      49.557099999999998     48.549500000000009     45.977199999999996
C      49.901400000000002     45.826000000000008     47.655699999999996
C      49.047300000000000     48.161400000000000     47.310000000000002
C      49.485199999999999     47.052899999999994     48.198200000000000
C      47.227100000000000     51.566800000000001     45.336799999999997
C      46.349800000000002     52.463700000000003     46.120500000000007
C      45.949799999999996     52.409400000000005     47.404100000000000
C      46.661600000000000     51.290700000000001     48.074100000000001
C      46.189900000000002     51.058599999999998     49.373999999999995
C      47.034700000000001     50.052999999999997     50.069600000000008
C      50.292799999999993     43.668700000000001     50.935200000000009
C      49.993299999999998     43.762500000000003     52.273600000000002
C      49.430299999999995     44.843700000000013     52.807899999999989
C      49.390599999999999     46.151200000000003     52.095199999999991
C      48.595500000000001     47.097600000000000     52.670499999999990
C      48.261200000000002     48.344600000000000     51.859299999999998
C      47.000599999999999     50.212800000000001     51.530400000000000
C      47.440199999999997     49.338100000000011     52.546500000000002
C      47.709800000000001     51.961500000000001     44.072600000000001
C      46.943100000000001     53.115000000000009     43.327399999999997
C      45.822600000000001     53.825300000000013     43.938699999999997
C      45.482599999999998     53.275000000000006     45.185299999999998
C      49.183900000000001     50.174000000000007     44.055500000000002
C      48.666899999999998     51.175600000000003     43.363099999999996
C      49.634399999999992     43.385900000000007     48.225300000000004
C      49.999800000000000     42.072600000000008     48.977499999999999
C      50.801600000000001     42.353700000000003     50.122900000000001
H      50.041000000000004     45.384300000000010     44.642299999999999
H      48.465199999999996     46.388100000000009     44.740499999999997
H      49.925699999999999     45.623400000000004     46.598399999999998
H      51.487199999999994     47.233800000000002     45.144100000000002
H      45.586100000000002     51.732699999999994     49.953400000000002
H      50.121500000000005     42.803400000000011     52.959400000000002
H      49.200099999999999     44.803000000000011     53.824600000000004
H      47.995699999999999     46.865000000000009     53.694099999999992
H      46.961399999999998     51.232900000000001     52.047499999999999
H      47.157400000000003     49.386000000000010     53.480400000000003
H      45.167299999999997     54.647899999999993     43.419800000000002
H      44.434399999999997     53.613600000000005     45.083599999999997
H      49.883299999999998     49.495699999999999     43.686599999999999
H      48.737600000000000     51.418199999999999     42.200099999999999
H      48.526400000000002     43.151000000000010     48.582300000000004
H      49.734400000000001     43.383000000000010     46.739400000000003
H      48.915599999999998     41.854100000000003     49.205599999999990
H      50.668299999999995     41.705100000000002     48.193500000000000
H      50.941200000000002     41.352100000000007     50.579899999999995
H      51.842599999999997     42.669400000000010     49.816699999999997
H      44.157400000000003     53.324700000000007     47.583500000000001
O      44.646200000000000     52.500200000000007     47.828999999999994
O      47.240800000000000     53.485400000000013     42.175399999999996
