6

C      47.835599999999985     47.480849999999990     48.370049999999992
C      48.377799999999993     48.707450000000001     47.824050000000007
H      46.816199999999995     47.241449999999993     48.611849999999997
H      48.075000000000003     46.368749999999999     48.109050000000003
H      49.183800000000005     48.230950000000000     47.388150000000003
H      48.309400000000011     49.631250000000001     48.576850000000000
