5

C      48.069849999999988     47.877049999999997     47.833199999999984
H      48.513050000000000     47.047750000000001     47.218400000000003
H      48.772849999999998     47.815150000000010     48.781599999999997
H      47.227150000000002     47.500450000000008     48.317499999999995
H      48.129849999999998     48.952249999999999     47.577299999999994
