102

C      50.371749999999992     52.109949999999998     48.385899999999992
C      50.735950000000003     50.748250000000013     48.036599999999993
C      48.276150000000001     52.332350000000005     44.251599999999996
C      46.923749999999998     51.773350000000008     44.699699999999993
C      49.408649999999994     52.985750000000010     47.815699999999993
C      47.026749999999993     51.524050000000003     48.418299999999988
C      49.202550000000002     52.529950000000014     45.310999999999993
C      46.330550000000002     51.939450000000008     45.984399999999994
C      48.689750000000004     52.367850000000004     46.584899999999990
C      47.394250000000000     51.904250000000005     46.911099999999990
C      51.251949999999994     52.877150000000000     49.205499999999986
C      52.186349999999990     52.272850000000005     50.119999999999990
C      52.078049999999990     50.731150000000014     50.091799999999992
C      51.700749999999999     50.105950000000007     48.911900000000003
C      48.745350000000002     52.573350000000005     42.977199999999996
C      47.704449999999994     52.339150000000004     42.018299999999996
C      46.505049999999997     51.668250000000000     42.401299999999992
C      46.026650000000004     51.381750000000011     43.695999999999998
C      51.248849999999990     54.437150000000003     49.278499999999994
C      52.284049999999993     54.977650000000011     50.034300000000002
C      52.987849999999995     54.283250000000010     51.056099999999986
C      52.895449999999997     52.858650000000011     51.185499999999990
C      50.271749999999997     54.983450000000005     48.482100000000003
C      49.346750000000000     54.428650000000005     47.628399999999999
C      44.555750000000003     51.110950000000003     44.037999999999997
C      46.044349999999994     45.606549999999999     49.126400000000004
C      46.585549999999998     46.955050000000000     48.966499999999996
C      46.079149999999998     45.248450000000005     44.250900000000001
C      45.265749999999997     45.154150000000001     47.945099999999996
C      46.532150000000001     47.584350000000001     47.715299999999999
C      45.056649999999991     45.129050000000007     45.319499999999991
C      45.402649999999994     45.866650000000007     46.654799999999994
C      45.587049999999991     47.250650000000007     46.703099999999992
C      46.317849999999993     44.718450000000004     50.155500000000004
C      47.198049999999995     45.099850000000004     51.238499999999988
C      47.830050000000000     46.357550000000003     51.252200000000002
C      47.499349999999993     47.199150000000003     50.089399999999998
C      45.383349999999993     43.491849999999999     50.252700000000004
C      45.681049999999999     42.876150000000010     51.491399999999985
C      46.579750000000004     43.283550000000005     52.642399999999995
C      47.375749999999996     44.406550000000010     52.494900000000001
C      44.275250000000000     43.345150000000004     49.381699999999995
C      44.268950000000004     44.200350000000000     48.210700000000003
C      48.707949999999997     46.880550000000014     52.344099999999997
C      49.669950000000000     47.897050000000007     51.885099999999994
C      49.163150000000002     48.731050000000010     50.849299999999985
C      48.119550000000004     48.398850000000010     49.903199999999998
C      47.389049999999997     48.798750000000013     47.652199999999993
C      47.927350000000004     49.266550000000009     48.802399999999992
C      43.946449999999999     43.618650000000002     46.825599999999994
C      45.028949999999995     43.751150000000010     45.780400000000000
C      48.079849999999993     44.938550000000006     53.833500000000001
C      48.516449999999992     46.409850000000006     53.685999999999993
C      44.538150000000002     41.891649999999998     51.863299999999995
C      44.035749999999993     41.513350000000003     53.072900000000004
C      42.900250000000000     42.797550000000001     49.577399999999997
C      51.019249999999985     47.650950000000009     52.608999999999995
C      48.017849999999996     50.510750000000002     49.008700000000005
H      47.055049999999994     52.691850000000002     49.066199999999995
H      50.208050000000000     52.937850000000012     45.018000000000001
H      45.362650000000002     51.636850000000010     46.372799999999998
H      51.514349999999993     49.023750000000007     48.581599999999995
H      52.887149999999991     49.821350000000010     50.451599999999999
H      49.603849999999994     53.048950000000005     42.493399999999994
H      47.741649999999993     52.614250000000013     41.066900000000004
H      45.705249999999992     51.527850000000001     41.476399999999998
H      52.619149999999991     55.902250000000009     49.920500000000004
H      53.948549999999997     54.602650000000011     51.728499999999997
H      53.589449999999999     52.280250000000009     51.858300000000000
H      48.659750000000003     54.942150000000012     46.988299999999995
H      48.678049999999999     56.785950000000014     48.705500000000001
H      43.938249999999996     50.835450000000009     43.072099999999992
H      44.150049999999993     50.419850000000011     44.975700000000003
H      44.210049999999995     52.099050000000005     44.554599999999994
H      45.496849999999995     47.784050000000008     45.777500000000003
H      49.507350000000002     49.790350000000004     50.926800000000000
H      47.089550000000003     49.640150000000006     46.879099999999994
H      43.161549999999991     44.470950000000002     46.405699999999996
H      43.496549999999999     42.508850000000010     46.702799999999996
H      46.030649999999994     43.267049999999998     46.496899999999997
H      45.107150000000004     43.002549999999999     44.906899999999993
H      49.131950000000003     44.737450000000010     53.857599999999991
H      47.861049999999992     44.594149999999999     54.933099999999996
H      49.056249999999991     46.977150000000009     54.564999999999998
H      42.899249999999995     42.554150000000007     50.644099999999995
H      44.473550000000003     40.810550000000006     51.396699999999996
H      44.217150000000004     41.916950000000000     53.898600000000002
H      42.560850000000002     41.730249999999998     49.061399999999992
H      42.051450000000003     43.501550000000009     49.063900000000004
H      47.095950000000002     41.390850000000000     53.162800000000004
H      51.093649999999997     48.567650000000000     53.163200000000003
H      48.373249999999999     50.962450000000004     49.950900000000004
H      45.877650000000003     51.399050000000003     48.432000000000002
H      50.117850000000004     50.396550000000005     47.293199999999999
H      44.145849999999996     45.453450000000004     44.710999999999999
H      51.346849999999989     46.648650000000004     52.763700000000000
H      43.132849999999991     39.160449999999997     52.217900000000000
H      51.886049999999983     47.541950000000000     51.769899999999993
N      47.033850000000001     45.266850000000005     43.583100000000002
O      46.899249999999995     42.198149999999998     53.543199999999999
S      50.205849999999998     56.839550000000003     48.686999999999998
S      42.932949999999991     39.949950000000001     53.206999999999994
