18

C      47.985499999999988     48.769549999999995     47.910844999999995
C      47.968800000000002     47.217850000000006     48.210045000000001
C      47.702399999999997     49.377149999999993     46.641044999999998
C      47.174899999999994     46.619450000000001     47.183444999999999
C      48.711499999999987     49.476650000000006     48.871245000000009
C      48.454699999999988     46.442550000000004     49.243545000000005
C      46.882799999999989     48.719150000000006     45.711345000000001
C      46.668099999999995     47.343350000000001     46.058545000000002
C      49.324799999999996     48.679850000000002     49.855145000000000
C      49.376499999999993     47.196850000000005     50.007645000000004
H      47.703699999999998     50.620449999999998     46.705045000000005
H      47.432199999999995     45.379550000000002     46.949645000000004
H      48.919199999999989     50.593550000000000     48.800744999999999
H      48.048299999999998     45.536650000000002     49.521045000000008
H      45.930199999999999     49.241250000000001     45.393945000000002
H      46.062699999999992     46.758650000000003     45.339655000000000
H      50.069800000000001     49.408450000000002     50.188945000000011
H      49.939799999999991     46.493150000000000     50.660345000000000
