38

C      46.627949999999998     48.668599999999991     48.227599999999995
C      46.081050000000005     47.423200000000008     48.575199999999995
C      50.615549999999999     49.005800000000008     45.673400000000001
C      47.559550000000002     49.126400000000004     47.127600000000001
C      46.775250000000000     46.403700000000001     47.689900000000009
C      49.267949999999999     48.589399999999998     45.462100000000007
C      48.077349999999996     48.073999999999998     46.278900000000007
C      47.647549999999995     46.714399999999998     46.439200000000000
C      46.172150000000002     49.774699999999996     49.153300000000002
C      45.845950000000002     49.427499999999995     50.478899999999996
C      45.445849999999993     48.108800000000002     50.822400000000002
C      45.451650000000001     47.058099999999996     49.898099999999999
C      47.949649999999991     50.424000000000007     47.267800000000008
C      47.420950000000005     51.386399999999995     48.246600000000001
C      46.394149999999996     51.265699999999995     49.221100000000007
C      46.325749999999999     45.208100000000002     48.209900000000005
C      45.530249999999995     44.835999999999999     49.200099999999992
C      45.030249999999995     45.673500000000004     50.153199999999998
C      50.955550000000002     48.635400000000004     46.964200000000005
C      51.636449999999996     48.502300000000005     47.924500000000009
C      48.770150000000001     48.814499999999995     44.028999999999996
C      45.665350000000004     50.306399999999996     51.650900000000007
H      51.231449999999995     49.569400000000002     44.863399999999999
H      45.146450000000002     47.803399999999996     51.788100000000000
H      49.480750000000000     49.452500000000001     43.549700000000001
H      48.423850000000002     51.079300000000003     46.619500000000002
H      47.706450000000004     52.413499999999999     48.207999999999998
H      45.758650000000003     52.148600000000002     49.324599999999990
H      48.205849999999998     45.988699999999994     45.881299999999996
H      46.750050000000002     44.175399999999996     47.788399999999996
H      45.510850000000005     43.586500000000001     49.413399999999996
H      44.363550000000004     45.495599999999996     50.995399999999989
H      51.629149999999996     48.659999999999997     49.025499999999994
H      47.763350000000003     49.461700000000008     44.033900000000003
H      48.639449999999997     47.607900000000001     43.286500000000004
H      45.068349999999995     49.501400000000004     52.354500000000002
H      46.322850000000003     49.727400000000003     52.713499999999996
H      45.668850000000006     51.417299999999997     51.804599999999994
