18

C      47.644499999999994     48.273899999999990     47.038049999999991
C      48.240699999999997     47.948399999999999     48.306049999999999
C      46.995500000000000     47.372799999999998     46.300350000000009
C      48.638600000000004     46.455300000000001     48.369749999999996
C      47.560700000000004     49.804600000000008     46.899050000000003
C      48.675100000000000     48.655000000000001     49.526350000000008
C      46.956099999999999     46.058199999999999     46.847350000000006
C      47.519799999999996     45.589700000000001     48.033850000000001
C      47.785900000000005     50.504300000000001     47.992350000000002
C      48.232500000000009     49.907899999999998     49.221050000000005
H      46.350000000000001     47.839599999999997     45.483750000000001
H      49.649999999999999     46.156500000000001     48.845250000000007
H      47.003499999999995     50.318799999999996     46.145550000000000
H      49.246299999999998     48.200699999999998     50.516249999999999
H      46.413800000000002     44.823799999999999     46.570350000000005
H      47.515000000000001     44.384799999999998     48.178150000000002
H      47.642900000000004     51.615200000000002     47.901550000000000
H      48.683100000000003     50.382400000000004     50.289450000000002
