5

C      48.160499999999999     48.196949999999987     47.973999999999990
H      48.801099999999998     47.974849999999996     47.103499999999997
H      48.315800000000003     46.888849999999998     48.257999999999996
H      48.450200000000002     49.111150000000002     48.896500000000003
H      47.198900000000002     48.795549999999984     47.724000000000004
