18

C      47.849699999999999     48.379449999999991     47.781549999999996
C      49.014299999999999     47.771049999999995     48.257550000000002
C      47.912799999999997     48.776350000000001     46.430250000000001
C      49.884400000000007     47.083850000000005     47.533450000000002
C      46.532600000000002     48.866149999999998     48.481150000000007
C      49.037399999999998     47.923449999999995     49.733449999999998
C      48.459600000000002     47.861849999999997     45.581650000000003
C      49.537200000000006     47.108250000000005     46.155650000000001
C      46.765200000000000     49.196949999999994     49.861449999999998
C      48.026800000000001     48.581449999999997     50.361749999999994
H      47.006999999999998     49.313250000000004     45.975850000000001
H      50.555900000000001     46.508749999999999     48.135150000000003
H      45.444099999999999     48.793349999999997     48.000950000000010
H      49.979400000000005     47.830750000000002     50.283149999999999
H      48.292600000000000     47.895949999999992     44.576450000000001
H      49.895000000000003     46.189850000000000     45.465449999999997
H      46.091600000000000     49.810150000000000     50.548350000000006
H      48.005599999999994     48.857250000000001     51.423549999999999
