6

C      48.193599999999989     48.088349999999998     47.561049999999994
H      46.910299999999992     48.672050000000006     49.115549999999999
H      48.525499999999994     47.104649999999999     47.394350000000003
H      49.089700000000008     48.394049999999993     48.111249999999998
H      48.257700000000000     48.895350000000001     46.884450000000001
O      47.272300000000001     48.020350000000001     48.619349999999997
