89

C      43.921250000000001     48.743999999999986     50.504649999999977
C      42.674549999999996     48.796600000000012     51.179459999999992
C      42.974850000000004     53.537900000000008     50.288419999999988
C      44.491250000000008     50.028999999999996     50.075859999999984
C      41.818350000000009     49.924999999999997     51.206489999999988
C      44.020949999999999     52.682400000000001     49.952189999999987
C      42.030150000000006     52.623400000000004     50.867369999999980
C      43.803449999999998     51.242199999999997     50.140639999999991
C      42.408650000000009     51.221900000000005     50.919569999999993
C      44.569350000000000     47.486400000000003     50.105719999999984
C      44.352249999999998     46.402900000000002     50.981699999999989
C      43.321050000000000     46.477499999999992     52.071269999999984
C      42.329650000000001     47.417699999999996     51.674919999999986
C      45.433149999999998     47.267499999999998     48.989849999999990
C      46.476749999999996     46.275099999999995     49.037749999999988
C      46.370750000000001     45.272800000000004     50.026779999999988
C      45.141950000000008     45.229500000000002     50.679039999999986
C      41.211550000000003     52.838700000000003     52.236649999999983
C      45.185149999999993     47.933499999999995     47.613106699999989
C      42.785849999999996     55.052499999999995     50.201579999999986
C      43.466750000000005     55.485700000000008     48.949009999999987
C      47.553249999999991     44.293499999999995     49.994399999999985
C      52.938249999999996     47.501700000000000     46.360139999999987
C      53.619050000000001     47.140699999999995     45.038239999999995
C      50.572649999999996     43.766099999999994     47.138940000000005
C      49.635350000000003     44.870699999999999     47.033439999999999
C      54.067450000000008     45.847300000000004     44.588940000000001
C      52.013850000000005     43.801699999999997     46.783939999999987
C      49.847650000000002     45.866199999999992     45.932940000000002
C      53.407849999999996     44.642399999999995     45.109839999999984
C      50.818449999999999     45.728899999999996     43.626839999999973
C      52.046849999999992     44.594999999999999     45.544039999999988
C      50.942050000000009     45.553500000000000     45.155739999999994
C      50.425550000000001     42.648899999999998     47.947460999999990
C      49.274450000000002     42.826200000000000     48.812459999999987
C      48.534850000000006     44.067599999999999     48.987829999999988
C      48.740949999999998     45.114499999999992     47.946175999999987
C      51.536850000000001     41.751800000000003     48.486760999999987
C      51.226849999999999     40.913799999999995     49.661379999999987
C      49.984349999999992     40.964900000000000     50.191599999999987
C      48.885550000000009     41.800200000000004     49.813139999999990
C      52.869450000000001     42.103300000000004     48.271635999999987
C      53.082149999999999     43.055899999999994     47.279639999999986
C      54.524850000000001     43.235399999999998     46.611140000000006
C      54.447850000000003     43.485500000000002     45.163640000000001
C      48.984350000000006     47.040499999999994     45.617339999999970
C      47.494249999999994     46.187799999999996     47.876176999999984
C      48.153149999999997     47.016999999999996     44.675739999999983
C      49.203749999999999     48.563800000000001     46.230440000000009
H      45.288849999999996     49.900400000000005     49.189259999999990
H      40.770449999999997     49.775300000000001     51.207209999999989
H      44.862250000000003     52.905200000000008     49.243779999999987
H      43.090550000000007     45.823399999999992     52.935759999999988
H      41.420850000000002     46.984799999999993     51.495749999999987
H      45.019250000000000     44.486000000000004     51.569669999999988
H      40.553650000000005     52.038700000000006     52.880179999999996
H      44.202050000000000     48.389200000000002     47.764780999999985
H      43.320250000000001     55.525700000000001     51.184419999999989
H      41.624949999999998     55.164100000000005     49.854539999999986
H      42.702550000000002     56.016800000000003     48.289243999999989
H      43.512850000000000     54.552099999999996     48.544190999999984
H      44.467149999999990     55.928799999999995     49.242109999999990
H      47.740549999999999     43.725300000000004     51.051189999999977
H      52.722449999999995     46.612399999999994     47.005639999999993
H      53.419849999999997     48.482799999999997     46.551340000000003
H      51.833649999999992     47.887500000000003     46.333040000000004
H      53.983850000000004     48.228999999999999     44.779239999999987
H      54.218249999999998     46.152500000000003     43.631540000000001
H      50.482849999999999     46.953599999999994     44.047139999999985
H      51.904550000000000     45.731499999999997     43.064240000000012
H      51.863950000000003     39.983199999999997     50.019059999999989
H      49.518950000000004     40.400099999999995     51.111489999999989
H      53.655850000000001     41.276799999999994     48.404010999999990
H      55.442050000000009     42.653700000000001     46.623139999999999
H      54.883250000000004     44.216799999999992     47.115639999999999
H      53.706249999999997     42.792599999999993     44.736239999999967
H      55.446349999999995     43.414400000000001     44.685439999999986
H      46.954849999999993     46.109700000000004     46.981739999999988
H      47.942850000000007     47.207200000000000     47.923083999999989
H      47.350650000000002     47.773299999999992     44.540840000000003
H      48.266450000000006     46.084099999999992     43.993239999999986
H      50.496449999999996     44.667500000000004     43.412940000000013
H      50.285350000000008     48.867100000000008     45.973739999999992
H      48.685050000000004     48.754599999999996     47.176240000000007
H      48.989750000000001     49.072900000000004     45.373540000000020
H      47.084950000000006     42.228999999999999     49.208149999999989
O      40.682550000000006     53.795500000000004     52.447509999999980
O      45.332650000000001     47.428399999999996     46.572039999999987
O      47.585949999999997     41.524900000000002     49.812779999999989
