21

C      50.051099999999991     45.909049999999993     48.478400000000001
C      48.044699999999999     49.673050000000003     47.512799999999999
C      48.118099999999991     49.251850000000005     48.970799999999997
C      47.053300000000000     50.500349999999997     46.930599999999998
C      47.685099999999998     50.344849999999994     49.925600000000003
C      48.661299999999990     48.954949999999997     46.518900000000002
C      48.783699999999989     48.076149999999998     49.430300000000003
C      46.245799999999996     50.661749999999998     48.073200000000000
C      46.297999999999995     50.746449999999996     49.522800000000004
C      49.356599999999993     47.805549999999997     47.000399999999999
C      49.335899999999988     47.381049999999988     48.383400000000009
H      50.489100000000001     45.447350000000000     47.564300000000003
H      50.680900000000001     45.954049999999995     49.285499999999999
H      49.455799999999989     44.913449999999997     48.668300000000002
H      47.186499999999988     50.989450000000005     45.776700000000005
H      48.629100000000001     50.930149999999998     49.737499999999997
H      48.632799999999996     49.128850000000000     45.464799999999997
H      48.930099999999989     47.889649999999989     50.446700000000007
H      45.319099999999999     51.086550000000003     47.890700000000010
H      45.869899999999994     50.684849999999997     50.535200000000003
H      49.912500000000001     47.377650000000003     46.144000000000005
