5

C      47.609399999999994     47.560850000000002     48.731749999999998
C      48.196599999999997     47.717849999999999     47.694350000000000
H      47.276900000000005     47.317850000000007     49.850449999999995
H      48.723099999999995     48.682149999999993     46.149550000000005
O      48.695299999999996     47.854450000000000     46.456950000000006
