5

C      48.090799999999987     48.103699999999996     48.013349999999988
H      47.654799999999987     47.399500000000003     47.395350000000008
H      48.794300000000000     48.600499999999997     47.320549999999997
H      48.639599999999994     47.540900000000008     48.679450000000003
H      47.205700000000000     48.398200000000003     48.668450000000007
