39

C      47.707199999999993     46.770399999999995     45.952799999999989
C      48.647900000000000     47.664099999999991     46.730699999999999
C      46.999099999999999     45.602000000000004     46.562799999999996
C      49.614800000000002     46.680199999999999     47.107200000000006
C      47.053100000000001     47.611499999999992     44.835300000000004
C      48.657899999999998     49.001099999999994     47.036400000000000
C      47.930000000000000     45.011799999999994     47.475700000000003
C      49.250299999999996     45.524500000000003     47.761300000000006
C      45.581600000000002     47.400399999999991     44.996600000000001
C      44.724100000000000     47.621200000000002     43.927599999999998
C      49.928300000000000     48.977099999999993     50.465999999999994
C      50.783799999999999     50.295299999999997     50.485600000000005
C      49.099900000000005     48.424300000000002     49.541600000000003
C      50.638500000000001     51.069299999999998     49.267300000000006
C      50.323799999999999     48.206299999999985     51.590699999999998
C      51.567400000000006     50.691199999999995     51.524100000000004
C      49.221800000000002     49.135499999999993     48.399000000000001
C      49.940699999999993     50.401899999999998     48.357299999999995
C      51.089100000000002     48.547299999999993     52.720100000000002
C      51.518200000000000     49.906699999999987     52.760700000000000
C      47.943300000000008     46.975099999999998     43.484399999999994
H      46.281800000000004     44.971199999999996     46.070800000000006
H      50.646299999999997     46.939700000000002     47.442599999999999
H      47.320499999999996     48.656199999999998     45.019700000000000
H      44.985900000000001     47.397800000000004     42.939400000000006
H      47.370800000000003     43.985399999999998     47.871899999999997
H      49.997900000000001     45.062100000000001     48.338099999999997
H      45.336200000000005     46.990600000000001     46.004500000000007
H      43.675899999999999     47.528099999999995     44.322800000000001
H      48.686900000000009     47.443100000000001     49.689599999999999
H      51.085099999999997     52.014600000000002     49.165099999999995
H      49.718699999999998     47.420800000000000     51.801000000000002
H      52.324100000000001     51.915799999999990     51.778700000000001
H      49.744000000000000     50.963200000000001     47.457899999999995
H      51.590500000000006     47.612999999999985     53.470200000000006
H      51.991100000000003     49.952899999999985     53.700299999999999
H      48.779200000000003     46.351699999999994     43.802000000000007
H      48.169899999999998     49.993899999999996     46.381500000000003
O      47.781700000000001     47.249099999999999     42.299700000000001
