18

C      47.485099999999996     47.680299999999988     47.603749999999984
C      48.728600000000000     48.215249999999997     48.304649999999995
C      46.764100000000006     46.464810000000000     47.946149999999996
C      49.256299999999996     47.322770000000006     49.308149999999998
C      47.292200000000001     48.318460000000002     46.360649999999993
C      49.260700000000007     49.440590000000000     47.951549999999997
C      47.480900000000005     45.697699999999998     48.850049999999996
C      48.475000000000009     46.153350000000003     49.858149999999995
C      47.645100000000006     49.749989999999997     46.080049999999993
C      48.620800000000003     50.191990000000004     46.900149999999996
H      46.020700000000005     46.299639999999997     47.204349999999991
H      49.979299999999995     47.668239999999997     49.987749999999991
H      46.629000000000005     47.873950000000008     45.460049999999995
H      49.907700000000006     49.993290000000002     48.550150000000002
H      47.372300000000003     44.717309999999998     49.044049999999991
H      48.960999999999999     45.669750000000008     50.782250000000005
H      47.196700000000007     50.411490000000001     45.217749999999995
H      49.017300000000006     51.282690000000002     46.893849999999993
