5

C      47.912044999999992     47.985149999999997     47.781534999999991
H      48.934604999999998     48.167749999999998     47.124904999999998
H      47.368065000000001     47.258550000000000     47.102384999999998
H      48.464555000000004     47.683149999999998     48.897615000000002
H      47.065395000000002     48.741450000000000     47.701225000000008
