56

C      48.777750000000005     52.169249999999991     50.046549999999996
C      49.337050000000005     49.300150000000002     46.129249999999999
C      46.313350000000000     43.855249999999998     49.054850000000002
C      48.971050000000005     49.553249999999998     47.587750000000000
C      46.704150000000013     44.913150000000002     49.809950000000001
C      49.228250000000003     48.216450000000002     45.212049999999998
C      46.418150000000011     43.767850000000003     47.635550000000002
C      48.403150000000011     48.325949999999999     48.030850000000001
C      47.461750000000009     46.156950000000002     49.368450000000003
C      48.208350000000010     45.886350000000000     45.001849999999997
C      47.584050000000005     44.934350000000002     45.772649999999999
C      48.435450000000003     47.136150000000001     45.777650000000001
C      47.268250000000009     44.823750000000004     47.181849999999997
C      48.116950000000003     47.123449999999998     47.172049999999999
C      47.561950000000010     46.011250000000004     47.915450000000000
C      48.290950000000009     48.305950000000003     49.464050000000000
C      47.835350000000005     47.177050000000001     50.231649999999995
C      49.750550000000004     50.433349999999997     45.371749999999999
C      49.880750000000006     51.622450000000001     45.927849999999999
C      49.054150000000007     50.903050000000000     48.016350000000003
C      48.522450000000006     50.944749999999999     49.351750000000003
C      48.585350000000005     49.598250000000000     50.213450000000002
C      49.601650000000006     48.647649999999999     43.810749999999999
C      51.717449999999999     49.218249999999998     44.358150000000002
C      50.427950000000010     49.994550000000004     43.997149999999998
C      45.862750000000005     44.823650000000001     51.075650000000003
C      44.799150000000012     45.787550000000003     51.006850000000007
C      47.426550000000006     47.175350000000002     51.694550000000000
C      48.968650000000011     45.700350000000000     43.691749999999999
C      50.111150000000009     44.697949999999999     43.493049999999997
C      47.977550000000008     46.412050000000001     52.726149999999997
H      48.464850000000013     52.936850000000000     49.500850000000000
H      49.410850000000011     52.594549999999991     50.924750000000010
H      45.492050000000006     43.511850000000003     49.709049999999998
H      45.963050000000010     43.063150000000000     46.969650000000001
H      47.581450000000004     43.979649999999999     45.203650000000003
H      50.088550000000012     52.280850000000008     45.035750000000000
H      49.735450000000000     49.326950000000004     50.193049999999992
H      48.581950000000006     48.992750000000001     43.144849999999998
H      50.086350000000010     47.869850000000000     43.083350000000003
H      52.395949999999999     49.873049999999999     44.865250000000003
H      52.351250000000007     48.794150000000002     43.589150000000004
H      51.048450000000003     50.921550000000003     43.846550000000001
H      51.481450000000009     48.216650000000001     44.764350000000000
H      45.433550000000011     43.966349999999998     51.563150000000000
H      44.955750000000009     46.888350000000003     50.794550000000001
H      43.604050000000001     45.812249999999999     51.270449999999990
H      46.683050000000009     47.713650000000001     52.021050000000002
H      50.911950000000004     45.424750000000003     43.306350000000002
H      50.489050000000006     44.426949999999998     44.544249999999998
H      49.601550000000003     43.998249999999999     42.506250000000001
H      48.210450000000009     50.129350000000002     51.372650000000000
H      47.354849999999999     46.206550000000000     53.493749999999999
H      48.992850000000004     45.749850000000002     52.553150000000009
N      49.350550000000013     51.840150000000001     47.143250000000002
O      48.628950000000003     46.347149999999999     42.783450000000002
