5

C      48.142699999999998     48.173149999999985     48.019700000000000
H      48.325000000000003     47.113849999999999     48.275999999999996
H      47.323700000000002     48.721549999999993     48.331000000000003
H      48.676299999999998     48.548450000000003     47.139899999999997
H      48.551400000000001     48.886150000000001     48.860100000000003
