6

C      48.029949999999992     47.432649999999995     48.403100000000002
C      48.038349999999994     48.494550000000004     47.534199999999998
H      48.832549999999998     47.098050000000001     49.085099999999997
H      46.947249999999997     47.134749999999997     48.713200000000001
H      49.052750000000003     48.901949999999999     47.236400000000003
H      47.153649999999999     48.859749999999991     46.914900000000003
