18

C      47.517949999999999     47.858599999999996     47.532099999999993
C      48.716149999999999     47.769900000000000     48.567800000000005
C      47.741549999999989     48.282800000000002     46.144199999999998
C      49.583549999999988     48.780999999999999     48.160300000000007
C      46.438149999999993     47.329000000000001     48.259600000000006
C      48.967050000000000     46.975100000000005     49.729900000000001
C      48.947949999999992     48.838599999999992     45.838600000000000
C      49.810449999999989     49.309100000000001     46.828800000000001
C      46.495850000000004     46.793399999999998     49.582499999999996
C      47.722949999999997     46.425240000000002     50.140000000000001
H      46.950350000000000     48.237200000000009     45.319699999999997
H      50.224750000000000     49.162600000000005     48.831800000000001
H      45.435350000000000     47.508900000000004     47.645799999999994
H      49.960250000000002     46.855700000000006     50.225399999999993
H      49.179349999999999     49.149300000000004     44.816800000000001
H      50.564650000000000     50.170800000000000     46.886899999999997
H      45.481349999999992     46.400730000000003     49.929199999999994
H      47.492449999999991     45.829200000000000     51.183199999999999
