18

C      48.288849999999996     47.745719999999992     48.520489999999995
C      47.401750000000000     48.522300000000001     47.671019999999999
C      49.702149999999996     47.570610000000002     48.106849999999994
C      48.026249999999997     49.193770000000001     46.535370000000000
C      47.915950000000002     46.959509999999995     49.611999999999995
C      45.988050000000008     48.415540000000007     47.916589999999999
C      50.115249999999996     47.863259999999997     46.795879999999997
C      49.262250000000002     48.802650000000000     46.069990000000004
C      46.557350000000007     47.203879999999998     49.986490000000003
C      45.738950000000010     48.168250000000000     49.323339999999988
H      50.395350000000001     46.962069999999997     48.892250000000004
H      47.519950000000001     49.943179999999998     45.880679999999998
H      48.527149999999999     46.056820000000002     49.835409999999996
H      45.288550000000008     48.940240000000003     47.291390000000007
H      51.121050000000004     47.458370000000002     46.488240000000005
H      49.739849999999997     49.565500000000000     45.091980000000007
H      46.249650000000010     46.776550000000000     50.908019999999993
H      44.878949999999996     48.808319999999995     49.974429999999998
