18

C      48.303499999999993     48.681849999999997     47.246899999999997
C      47.824600000000004     48.585350000000005     48.624700000000011
C      47.430900000000001     48.607050000000001     46.112100000000005
C      46.598500000000001     49.105750000000000     49.000400000000006
C      49.462800000000001     47.845950000000002     46.952800000000003
C      48.476500000000001     47.832750000000004     49.685500000000012
C      46.189900000000002     48.951750000000004     46.562600000000003
C      45.790400000000005     49.356549999999999     47.880500000000005
C      50.244700000000002     47.099250000000012     47.951700000000010
C      49.569900000000004     47.259450000000001     49.153300000000009
H      45.423699999999997     48.920150000000007     45.728700000000003
H      46.198400000000007     49.574449999999999     49.974000000000004
H      47.906300000000002     48.325050000000005     45.198000000000000
H      49.562200000000004     47.257450000000006     45.928000000000004
H      48.352400000000003     47.958750000000009     50.802000000000000
H      44.875399999999999     49.561350000000019     48.006400000000006
H      51.124600000000001     46.653850000000006     47.703900000000012
H      49.995699999999999     46.425550000000001     49.961100000000009
