65

C      48.208599999999990     49.462649999999989     52.937899999999992
C      48.457400000000000     50.161550000000005     54.105400000000003
C      51.973899999999993     51.138850000000005     51.496399999999994
C      49.093899999999998     49.301950000000005     51.742899999999992
C      49.802600000000005     50.696150000000003     54.382700000000000
C      51.038699999999999     50.238450000000000     50.845399999999998
C      52.016299999999994     50.923450000000003     52.965000000000003
C      50.312800000000003     49.881749999999997     51.937399999999997
C      50.699300000000001     50.370149999999995     53.357299999999995
C      47.004399999999997     48.593450000000004     52.688599999999994
C      46.084099999999999     48.269649999999999     53.712099999999992
C      46.440900000000006     48.841250000000002     54.946899999999999
C      47.488899999999994     49.721249999999998     55.102699999999999
C      46.724200000000003     47.856150000000000     51.480899999999991
C      45.100000000000001     46.549850000000006     52.564499999999995
C      47.609500000000004     48.028850000000006     50.371700000000004
C      48.621800000000000     48.883049999999997     50.318799999999996
C      49.329799999999999     49.269850000000005     49.082799999999992
C      50.372599999999998     50.050650000000005     49.473900000000000
C      48.471499999999999     49.812849999999997     47.771799999999999
C      52.389599999999994     52.320050000000009     50.798599999999993
C      43.809199999999997     45.876249999999999     52.083600000000004
C      48.245600000000003     46.827849999999998     45.530500000000004
C      46.880800000000001     46.487850000000009     45.653800000000004
C      48.945399999999999     47.819450000000003     46.059500000000000
C      45.877900000000004     47.416550000000001     46.226399999999998
C      48.023199999999996     48.754149999999996     46.654799999999994
C      46.636800000000001     48.563350000000000     46.398899999999998
C      49.110199999999999     45.965050000000005     44.629700000000000
C      48.439200000000007     44.855649999999997     43.810699999999997
C      47.179499999999997     44.569550000000007     44.155000000000001
C      46.520500000000006     45.180650000000000     45.161599999999993
C      50.478299999999997     46.197249999999997     44.426099999999991
C      51.256400000000006     45.589849999999998     43.288200000000003
C      50.613400000000006     44.643749999999997     42.434600000000003
C      49.274099999999997     44.378650000000007     42.748400000000004
C      50.413900000000005     48.024150000000006     46.084699999999998
C      51.151599999999995     47.157750000000007     45.347200000000001
C      51.525200000000005     43.854250000000008     41.417699999999996
H      50.026900000000005     51.250749999999996     55.310099999999991
H      52.416199999999996     51.683350000000004     53.601100000000002
H      45.868599999999994     48.350750000000005     55.855300000000000
H      47.542499999999997     50.540350000000004     55.852899999999991
H      47.324800000000003     47.710549999999998     49.440600000000003
H      50.851800000000004     50.541550000000001     48.648499999999999
H      47.450499999999998     49.902150000000006     48.114699999999999
H      52.570699999999995     52.468350000000001     49.715400000000002
H      52.924500000000002     53.136049999999997     51.477599999999995
H      43.864699999999999     45.566649999999996     50.934200000000004
H      43.075499999999998     46.633849999999995     52.051900000000003
H      43.321399999999997     44.977550000000008     52.508700000000005
H      44.685000000000002     47.194749999999999     46.177399999999992
H      47.039999999999999     43.684250000000006     43.546300000000002
H      45.458300000000001     45.112850000000009     45.400999999999996
H      52.236600000000003     45.992550000000008     43.065399999999997
H      48.816600000000001     43.603949999999998     42.009100000000004
H      50.819799999999994     48.798050000000003     46.572199999999995
H      45.990299999999998     49.424949999999995     46.213499999999996
H      52.317699999999995     46.982650000000007     45.197400000000002
H      51.405200000000001     43.805750000000003     40.144700000000000
H      52.709499999999998     43.843850000000003     41.560699999999997
H      51.301700000000004     42.863950000000003     41.930700000000002
H      49.355399999999996     50.636350000000007     47.399599999999992
N      45.894100000000002     46.775950000000009     51.515599999999992
N      45.153300000000002     47.258949999999999     53.589500000000001
