18

C      48.746899999999989     48.897899999999993     47.959349999999993
C      47.439099999999996     48.237600000000000     48.006950000000003
C      49.193399999999997     48.993399999999994     46.577650000000006
C      46.842399999999998     47.357399999999998     47.029049999999998
C      49.358500000000006     49.435500000000005     49.221550000000008
C      46.635800000000003     48.652400000000000     49.135850000000005
C      48.826499999999996     47.921000000000006     45.673349999999999
C      47.779600000000002     47.012699999999995     45.954549999999998
C      48.711699999999993     49.468900000000005     50.543449999999993
C      47.235600000000005     49.154600000000002     50.211050000000000
H      50.197299999999998     49.634699999999995     46.356650000000002
H      46.054000000000002     46.667000000000002     47.047350000000002
H      50.404700000000005     48.930199999999999     49.202350000000010
H      45.595299999999995     48.366200000000006     49.392550000000000
H      49.183400000000006     47.968900000000005     44.680149999999998
H      47.324600000000004     46.365300000000005     45.039550000000006
H      49.404300000000006     49.188800000000001     51.319850000000002
H      46.696699999999993     48.948999999999998     51.059250000000006
