18

C      48.362074999999990     48.341999999999999     47.561349999999990
C      47.190335000000005     47.706499999999998     48.151949999999999
C      48.474975000000001     49.762700000000002     47.260249999999999
C      46.419574999999995     48.580599999999997     49.101849999999999
C      49.622515000000007     47.554099999999998     47.391049999999993
C      47.176834999999997     46.247700000000002     48.454549999999998
C      47.244405000000000     50.422699999999999     47.548549999999992
C      46.216735000000000     49.807700000000004     48.501649999999998
C      49.097194999999999     46.251799999999996     47.043949999999995
C      48.026835000000005     45.608799999999995     47.837450000000004
H      49.416285000000002     50.163400000000003     46.687249999999992
H      45.524145000000004     48.197300000000006     49.619950000000003
H      50.746814999999998     47.902800000000006     47.639550000000000
H      46.265055000000004     45.670499999999997     49.104950000000002
H      47.144395000000003     51.402499999999996     47.383250000000004
H      45.253185000000002     50.340399999999995     48.506550000000004
H      49.359945000000010     45.580100000000009     46.380049999999997
H      47.774465000000006     44.597500000000004     47.235849999999999
