9

C      48.076399999999985     48.486504999999994     48.414024999999995
C      48.838399999999993     47.410875000000004     47.820014999999998
H      48.596699999999998     49.237045000000009     49.211024999999999
H      48.184799999999996     49.353504999999998     47.806255000000000
H      48.590099999999993     47.273885000000007     46.788975000000001
H      49.103600000000000     46.646495000000002     48.607475000000001
H      49.658900000000003     47.874655000000004     47.418505000000003
H      46.341099999999997     49.012435000000011     49.081754999999994
O      46.752700000000004     48.268375000000006     48.669905000000000
