18

C      48.126700000000000     47.470149999999990     48.623399999999990
C      47.812899999999999     47.793050000000001     47.208400000000005
C      49.525700000000001     47.934449999999998     48.894200000000005
C      48.420500000000004     48.918050000000001     46.468100000000000
C      47.287099999999995     46.612849999999995     49.347500000000004
C      46.520099999999999     47.298949999999998     46.707000000000001
C      50.315099999999987     48.651649999999997     48.104000000000006
C      49.789400000000001     49.169750000000001     46.777600000000000
C      46.053200000000004     46.249150000000000     48.733799999999995
C      45.650400000000005     46.380150000000000     47.387200000000000
H      49.957800000000006     50.177050000000001     46.354700000000001
H      50.201599999999999     47.374549999999999     49.661800000000007
H      47.587999999999994     46.422950000000000     50.385799999999996
H      46.082300000000004     47.836949999999995     45.722699999999996
H      51.346299999999999     48.510849999999998     48.067600000000006
H      45.271000000000001     45.822949999999999     49.435700000000004
H      44.653700000000001     46.387349999999998     47.074900000000007
H      47.949399999999997     49.579349999999998     45.614200000000004
