18

C      47.589199999999991     48.616399999999999     47.901649999999989
C      48.741399999999992     47.841700000000003     47.729049999999994
C      46.597899999999996     48.176600000000008     46.927749999999996
C      49.390199999999993     47.572500000000005     46.334149999999994
C      47.294999999999995     49.512200000000007     49.040749999999996
C      49.307399999999994     47.549099999999996     49.078949999999999
C      47.139899999999997     47.343299999999999     45.892249999999997
C      48.475799999999992     46.714700000000008     45.778349999999996
C      48.077899999999993     49.386700000000005     50.257349999999995
C      48.854999999999997     48.245900000000006     50.187949999999994
H      49.143999999999998     47.859300000000005     51.030549999999998
H      45.610199999999999     48.566900000000004     47.008849999999995
H      50.389800000000001     47.677099999999996     45.945949999999996
H      46.454499999999996     50.278199999999998     48.994849999999992
H      46.659599999999998     47.121300000000005     44.881549999999997
H      48.563600000000001     45.721800000000002     45.319349999999993
H      47.519699999999993     49.984700000000004     51.118450000000003
H      50.026099999999992     46.808000000000007     49.203650000000003
