18

C      47.743299999999991     47.099499999999992     48.316049999999990
C      48.102399999999996     48.456600000000002     47.718350000000001
C      48.781900000000000     46.608300000000007     49.147550000000003
C      49.259200000000000     48.887300000000003     47.153449999999999
C      46.419399999999996     46.622000000000007     47.987650000000002
C      46.986199999999997     49.410000000000004     47.796349999999997
C      49.997799999999991     47.368900000000004     49.008949999999999
C      50.221499999999999     48.158900000000010     47.996150000000000
C      45.245699999999999     47.437600000000010     47.671250000000001
C      45.765700000000002     48.850300000000011     47.640850000000000
H      49.216299999999997     45.528100000000002     49.385550000000002
H      49.442000000000000     49.835600000000007     46.586149999999996
H      46.569299999999998     45.522100000000002     48.118049999999997
H      47.055599999999998     50.477899999999998     48.199249999999999
H      50.846799999999995     47.011000000000003     49.413850000000004
H      51.423300000000005     48.412300000000009     47.936050000000002
H      44.930099999999996     46.944600000000001     46.879950000000001
H      44.576699999999995     49.522200000000005     47.435249999999996
