50

C      49.044949999999986     47.276739999999990     46.075399999999995
C      47.666249999999991     47.459539999999997     45.700600000000001
C      48.783749999999998     50.471425000000004     49.558999999999997
C      47.351050000000001     50.293951000000007     49.790400000000005
C      49.643150000000006     48.020040000000002     47.181600000000003
C      46.790449999999993     48.496739999999996     46.357999999999990
C      49.591250000000002     50.230424000000006     48.437100000000001
C      46.808549999999997     49.516439999999996     48.707800000000006
C      48.922049999999999     49.121140000000004     47.658400000000000
C      47.462350000000001     49.092639999999996     47.413400000000010
C      49.457850000000008     45.950640000000000     45.311199999999999
C      48.861049999999992     45.107940000000006     44.398400000000002
C      47.320949999999996     45.297940000000004     44.518799999999999
C      46.806950000000001     46.597540000000002     44.931300000000000
C      49.466750000000005     51.046489999999999     50.706699999999998
C      47.693249999999992     50.688325999999996     52.090800000000002
C      46.606150000000000     50.479788000000006     51.051500000000004
C      51.199449999999999     47.572740000000003     47.276299999999992
C      51.122250000000008     46.173240000000000     47.489300000000000
C      50.564250000000001     45.358039999999995     46.308099999999996
C      45.371949999999998     48.957439999999998     45.760199999999998
C      44.685050000000004     47.931739999999998     44.900399999999998
C      45.331450000000004     46.753939999999993     44.624800000000000
C      51.014849999999996     50.400552000000005     48.265500000000003
C      51.661850000000001     50.824230000000007     49.404200000000003
C      50.795550000000006     51.283170000000005     50.557899999999997
C      44.214749999999995     45.828439999999993     44.060600000000001
C      45.196749999999994     50.622400000000006     50.997199999999999
H      52.143349999999998     45.684739999999998     47.750299999999996
H      49.237250000000003     44.327739999999999     43.921700000000001
H      47.111049999999992     50.853500000000004     52.996099999999998
H      51.399850000000001     48.026739999999997     48.344200000000001
H      51.710449999999994     48.061140000000002     46.425700000000006
H      50.587950000000006     45.769240000000003     48.481999999999999
H      51.514250000000004     44.418839999999996     45.689999999999998
H      50.063350000000000     44.565940000000005     46.758600000000001
H      44.712249999999997     49.358340000000005     46.617499999999993
H      43.577249999999992     47.750139999999995     44.807899999999997
H      45.844250000000002     49.852303000000006     45.219000000000001
H      45.773849999999996     49.461940000000006     48.560000000000002
H      51.488650000000007     49.942135000000007     47.382800000000003
H      52.740750000000006     50.970040000000004     49.267299999999999
H      51.507549999999995     51.672260000000001     51.353499999999997
H      43.259249999999994     45.997639999999997     44.631200000000000
H      44.701949999999997     44.833040000000004     44.218499999999999
H      43.777749999999997     45.985139999999994     43.003900000000002
H      45.032650000000004     50.964310000000005     49.847700000000003
H      44.702649999999991     51.153790000000008     51.850600000000000
N      48.940749999999994     51.000660000000003     51.961599999999997
O      46.736149999999995     44.445640000000004     44.013100000000001
