18

C      48.383549999999993     48.683294999999987     48.115474999999989
C      47.889350000000000     47.406075000000001     48.349195000000009
C      49.559049999999999     49.247564999999994     47.554614999999998
C      48.658850000000001     46.369365000000002     47.659485000000004
C      47.572749999999999     49.603825000000001     48.789704999999998
C      46.433949999999996     46.988624999999999     48.391345000000001
C      50.423349999999999     48.280285000000006     47.107995000000003
C      49.727950000000007     47.042185000000003     46.970335000000006
C      46.144349999999996     49.244565000000009     49.194845000000001
C      45.598349999999996     47.975814999999997     48.939075000000003
H      49.751149999999996     50.318215000000009     47.392175000000009
H      48.251049999999999     45.502274999999997     47.362544999999997
H      47.896149999999999     50.497725000000003     48.381434999999996
H      46.090449999999997     46.015135000000001     48.466365000000010
H      51.502949999999998     48.570485000000005     46.970465000000004
H      50.203050000000005     46.299364999999995     46.362515000000002
H      45.370249999999999     49.930774999999997     49.637484999999998
H      44.497050000000002     47.635355000000004     48.844655000000003
