5

C      48.193899999999992     48.198849999999993     48.152899999999988
H      48.091200000000001     47.212550000000000     48.803300000000000
H      47.111300000000000     48.190250000000006     47.922699999999999
H      48.743000000000002     48.787450000000000     48.832000000000001
H      48.888700000000000     48.109150000000000     47.167999999999999
