39

C      47.849750000000000     49.716399999999993     46.336999999999989
C      46.742450000000005     49.158800000000006     47.236499999999999
C      49.832350000000005     45.969700000000003     48.476400000000005
C      49.153549999999996     45.812100000000001     49.699899999999992
C      48.967449999999999     48.763200000000005     46.396099999999997
C      46.473650000000006     48.111600000000003     48.159599999999990
C      50.095050000000001     46.951400000000007     47.372599999999998
C      48.035650000000004     46.724100000000007     49.442900000000002
C      48.839250000000007     47.658700000000003     47.377099999999992
C      47.735349999999997     47.554700000000004     48.344499999999989
C      47.650649999999999     50.804099999999998     45.560099999999998
C      46.678049999999999     51.736200000000004     45.637200000000000
C      45.883250000000004     51.335600000000007     46.708199999999998
C      45.773849999999996     50.173400000000008     47.442900000000002
C      50.805549999999997     44.946600000000004     48.420899999999996
C      50.889350000000007     43.822500000000005     49.173200000000001
C      50.225650000000002     44.002600000000001     50.464599999999997
C      50.305349999999990     49.167099999999998     45.724199999999996
C      51.259250000000009     46.912000000000006     46.488899999999994
C      45.165949999999995     47.145700000000005     48.279499999999992
C      44.613450000000000     50.356299999999997     48.436399999999999
H      44.719449999999995     47.289000000000001     49.314199999999992
H      47.230249999999998     46.480800000000002     50.326699999999995
H      48.406450000000007     50.943800000000003     44.803899999999992
H      46.575249999999997     52.692399999999999     45.128899999999994
H      45.189250000000001     52.247199999999999     46.730899999999998
H      51.577849999999998     44.909800000000004     47.778399999999998
H      51.815550000000002     43.307600000000001     49.013399999999997
H      50.639449999999997     43.815500000000000     51.395299999999999
H      52.183049999999994     47.342000000000006     46.892699999999998
H      51.186949999999996     49.452300000000001     46.419599999999996
H      50.837350000000001     46.654600000000002     45.408200000000001
H      44.456850000000003     47.706400000000002     47.593199999999989
H      44.207049999999995     51.372999999999998     48.459299999999992
H      43.816950000000006     49.668200000000006     48.250599999999999
H      45.436650000000000     46.262000000000000     48.706899999999997
H      45.151849999999996     50.115500000000004     49.569799999999994
N      49.353149999999999     44.947500000000005     50.671699999999994
O      50.423349999999999     49.626399999999997     44.604700000000001
