18

C      48.582999999999998     48.130949999999984     48.454349999999991
C      47.707299999999996     47.140050000000002     47.813549999999999
C      48.945699999999995     49.049849999999992     47.473649999999999
C      47.995799999999996     46.823149999999998     46.461350000000003
C      48.362599999999993     48.696950000000001     49.885749999999994
C      46.672699999999999     46.599350000000001     48.580949999999994
C      49.776400000000002     48.481650000000002     46.351649999999999
C      49.220000000000006     47.285049999999998     45.835850000000001
C      47.101300000000002     48.215650000000011     50.432150000000000
C      46.382799999999996     47.200850000000003     49.731150000000007
H      48.920999999999999     50.038849999999996     47.800949999999993
H      47.515399999999993     46.097849999999994     46.034450000000000
H      49.165399999999998     48.997450000000001     50.592350000000003
H      45.926499999999997     45.961150000000004     47.947550000000000
H      50.636199999999995     49.134749999999997     46.028849999999998
H      49.497700000000002     46.823549999999997     44.953550000000000
H      46.499299999999998     48.786050000000003     51.046450000000000
H      45.363800000000005     47.355449999999990     50.073349999999998
