19

C      47.056049999999992     48.479450000000000     47.894900000000000
C      48.127250000000004     47.654550000000000     47.445700000000002
C      46.286149999999999     48.008049999999997     49.083200000000005
C      47.895949999999999     46.154750000000007     47.618500000000012
C      46.921650000000000     49.958449999999999     47.584800000000001
C      49.209050000000005     48.020750000000007     46.665600000000012
C      46.412250000000000     46.726250000000007     49.546500000000009
C      47.136150000000001     45.805450000000008     48.651000000000010
C      48.236750000000001     50.178950000000000     46.513200000000012
C      49.253050000000002     49.266350000000003     46.157100000000000
H      45.994950000000003     48.697050000000004     49.901600000000002
H      48.070350000000005     45.361450000000005     46.656000000000006
H      45.971150000000002     50.063249999999996     47.006200000000007
H      50.122250000000001     47.403250000000000     46.457300000000004
H      45.870350000000002     46.221350000000001     50.652400000000000
H      46.674149999999997     44.785250000000005     48.914100000000005
H      48.067350000000005     51.214749999999995     46.003800000000012
H      50.129649999999998     49.303250000000006     45.347600000000000
H      46.775850000000005     50.568449999999999     48.397400000000005
