6

C      47.166749999999993     47.977499999999999     48.256249999999987
C      48.577249999999999     47.851799999999997     47.995249999999999
H      46.638950000000001     47.021900000000002     48.309650000000005
H      49.361049999999999     47.067099999999996     47.551749999999998
H      46.792049999999996     48.978099999999998     48.109549999999999
H      49.176150000000000     48.777299999999997     48.448250000000002
