18

C      48.134699999999995     47.888899999999992     47.467999999999989
C      47.614800000000002     47.828600000000002     48.832499999999996
C      47.789099999999998     47.144600000000004     46.318500000000000
C      46.689599999999999     46.700299999999999     49.092100000000002
C      49.071099999999994     48.986899999999999     47.321600000000004
C      47.945900000000002     48.883199999999995     49.791000000000011
C      46.678800000000003     46.435700000000004     46.625000000000000
C      46.311700000000002     46.050800000000002     47.966300000000004
C      49.373899999999999     50.008500000000005     48.199600000000004
C      48.683599999999998     50.042799999999993     49.379499999999993
H      48.154499999999999     47.577000000000005     45.365399999999994
H      46.123100000000001     46.464200000000005     49.974299999999999
H      49.784399999999998     48.731999999999999     46.521599999999992
H      47.249299999999998     49.047699999999999     50.634600000000006
H      45.983100000000000     45.845200000000006     45.789100000000005
H      45.869999999999997     45.123100000000001     48.156100000000009
H      50.130000000000003     50.649600000000000     47.853899999999996
H      48.938000000000002     50.876899999999999     50.111300000000000
