18

C      47.720384999999993     47.273599999999988     48.292799999999993
C      48.178855000000006     48.653499999999994     48.312399999999997
C      46.399235000000019     46.985899999999994     47.670599999999993
C      47.417786999999997     49.810200000000002     47.927999999999997
C      48.717944999999993     46.275599999999997     48.098900000000000
C      49.483655000000006     49.030399999999993     48.784099999999995
C      45.613635000000009     48.085299999999997     47.318699999999993
C      46.077135000000006     49.476399999999991     47.542999999999992
C      49.995245000000004     46.635799999999996     48.328800000000001
C      50.329005000000002     47.951999999999991     48.809299999999993
H      46.162334999999999     45.958599999999997     47.302599999999998
H      47.677585000000001     50.771700000000003     48.002099999999999
H      48.425865000000002     45.228299999999997     47.730999999999995
H      49.612245000000001     50.063299999999991     49.257400000000004
H      44.634835000000002     47.929299999999998     46.742599999999996
H      45.460035000000026     50.257199999999990     47.360399999999998
H      50.815135000000005     46.024499999999996     48.014899999999997
H      51.365164999999998     47.903499999999994     49.102599999999995
