18

C      47.916399999999996     46.977299999999993     48.393049999999995
C      47.273400000000009     48.332799999999992     48.377350000000000
C      49.038700000000006     47.189200000000000     49.226649999999992
C      47.289200000000008     49.479199999999992     49.273650000000004
C      47.863700000000009     46.054599999999994     47.263550000000002
C      46.228500000000011     48.395600000000002     47.406850000000006
C      49.372400000000013     48.286400000000000     50.141950000000008
C      48.372200000000007     49.211299999999994     50.163950000000000
C      47.088600000000000     46.369799999999998     46.151650000000004
C      46.135900000000007     47.447299999999998     46.237349999999999
H      49.743200000000002     46.285199999999989     49.175150000000002
H      45.749600000000001     49.264199999999988     47.620850000000004
H      47.232399999999998     50.680700000000002     49.093450000000004
H      48.827900000000014     45.319299999999998     47.191950000000006
H      50.526100000000000     48.191199999999995     50.437449999999998
H      48.819100000000006     49.908099999999990     50.827550000000002
H      46.970600000000005     45.445399999999992     45.474750000000000
H      45.473900000000000     47.553100000000001     45.172449999999998
