6

C      47.990699999999990     48.517399999999995     48.091349999999991
H      48.092999999999996     48.233400000000003     47.039049999999996
H      47.271799999999992     46.626700000000000     48.960950000000004
H      47.107199999999999     49.373300000000000     47.894849999999998
H      48.892800000000001     48.723900000000000     48.790950000000002
O      47.153500000000001     47.545299999999997     48.833050000000000
