18

C      47.475999999999992     47.941099999999992     48.733049999999992
C      47.866799999999998     48.379799999999996     47.375250000000001
C      48.705100000000002     47.784900000000000     49.500349999999997
C      49.248000000000005     48.798799999999993     46.999949999999998
C      46.230800000000002     47.380899999999997     48.828249999999990
C      46.990900000000003     48.314699999999995     46.231249999999996
C      49.925200000000004     47.884499999999996     49.001950000000001
C      50.315899999999999     48.549500000000002     47.759549999999997
C      45.513800000000003     47.405899999999995     47.676849999999995
C      45.726500000000001     47.822499999999998     46.307749999999999
H      48.880200000000002     47.529800000000002     50.647650000000006
H      49.460100000000011     49.575499999999998     46.324750000000002
H      45.881200000000000     46.967099999999995     49.903649999999999
H      47.580700000000000     48.471799999999995     45.352349999999994
H      50.455100000000002     47.999299999999998     49.901649999999997
H      51.286599999999993     49.026999999999994     47.601049999999994
H      44.713400000000007     46.424500000000002     47.848250000000000
H      45.128700000000002     47.533799999999999     45.467750000000002
