18

C      47.994349999999997     47.401100000000000     47.661599999999993
C      48.498949999999994     48.044400000000003     48.846900000000005
C      46.757549999999995     46.782299999999999     47.522499999999994
C      47.789749999999998     47.915399999999998     50.018799999999999
C      48.513549999999995     47.740299999999998     46.380099999999999
C      49.564849999999993     48.887099999999997     48.575400000000002
C      46.144949999999994     46.677699999999994     48.851699999999994
C      46.640249999999995     47.104199999999999     50.131499999999988
C      49.714849999999998     48.541000000000004     46.079499999999996
C      50.080749999999995     49.333000000000006     47.274799999999999
H      46.510450000000006     46.172900000000006     46.662199999999999
H      48.288649999999990     48.335799999999999     50.854799999999997
H      47.995549999999994     47.506499999999996     45.331800000000001
H      49.878249999999994     49.209499999999998     49.530499999999989
H      45.555350000000004     45.708800000000004     49.010599999999997
H      45.794449999999998     47.254600000000003     50.996499999999997
H      49.066450000000003     49.033499999999997     45.003500000000003
H      50.444649999999996     50.291199999999996     47.185699999999997
