53

C      48.318499999999993     47.493099999999998     45.044899999999991
C      47.104100000000003     46.779200000000003     53.146400000000000
C      47.612800000000007     46.590199999999996     45.873399999999990
C      46.790900000000008     45.851100000000002     52.094300000000004
C      49.443399999999997     48.332599999999999     45.546700000000001
C      48.107700000000008     47.748899999999992     52.907100000000000
C      47.912400000000005     46.522599999999997     47.327500000000001
C      47.644300000000001     45.728000000000009     50.980499999999992
C      49.785700000000006     49.896700000000010     47.255700000000004
C      49.804600000000008     50.068100000000001     48.647199999999998
C      49.150400000000005     49.169199999999989     50.987499999999997
C      49.401899999999998     48.511400000000009     46.951399999999992
C      48.380499999999998     47.950400000000002     51.536799999999999
C      49.169799999999995     48.945400000000006     49.431200000000004
C      48.802599999999998     47.441100000000006     47.817099999999996
C      48.300600000000003     46.933099999999996     50.534999999999997
C      48.824300000000008     47.678899999999999     49.295699999999997
C      47.616500000000002     47.713600000000000     43.812399999999997
C      46.537099999999995     46.994300000000010     43.093699999999998
C      45.710800000000006     46.034900000000007     43.940100000000001
C      46.301200000000009     46.121800000000007     45.254599999999996
C      50.238600000000005     48.593899999999991     44.666399999999996
C      47.080100000000002     50.205900000000000     42.920999999999999
C      48.026800000000009     49.212299999999999     43.099999999999994
C      46.771000000000001     45.643299999999996     47.878100000000003
C      45.596500000000006     45.420000000000002     46.331800000000001
C      50.936300000000003     51.008499999999998     49.131799999999998
C      45.574300000000008     50.139400000000009     43.353499999999997
C      45.623300000000000     50.500600000000006     44.862699999999997
H      50.323499999999996     49.226600000000005     51.407499999999999
H      46.477900000000005     46.703400000000002     54.019400000000005
H      46.452300000000008     44.884200000000007     52.286799999999999
H      48.262400000000000     48.594300000000004     53.520700000000005
H      47.218800000000002     44.876400000000004     50.346299999999999
H      50.203100000000006     50.468199999999996     46.365899999999996
H      48.520300000000006     50.096800000000002     50.833699999999993
H      46.372900000000001     47.235600000000005     41.980599999999995
H      44.871099999999998     45.387500000000003     43.249299999999998
H      50.770600000000002     49.646900000000002     44.623599999999996
H      50.762900000000002     48.239399999999989     43.344399999999993
H      47.691800000000001     51.014099999999999     42.520899999999997
H      49.182699999999997     49.451400000000007     42.859499999999997
H      46.268200000000007     45.890700000000010     48.919299999999993
H      46.939700000000002     44.630099999999999     48.120899999999992
H      44.405100000000004     45.635599999999997     46.594399999999993
H      45.738900000000001     44.415999999999997     46.896799999999999
H      51.387200000000007     51.584000000000003     48.206099999999992
H      45.473500000000001     51.003500000000003     42.763199999999998
H      44.921700000000001     49.568699999999993     42.606399999999994
H      46.628200000000007     50.047300000000007     45.406300000000002
H      44.658400000000000     49.963099999999997     45.157600000000002
H      45.437200000000004     50.816000000000003     45.980499999999999
O      51.594899999999996     50.890400000000000     50.130299999999991
