18

C      48.646499999999996     47.973749999999995     48.370299999999993
C      47.433100000000003     48.460149999999999     47.725900000000003
C      49.052499999999995     48.073049999999995     49.753200000000007
C      46.552999999999997     49.098950000000002     48.710599999999999
C      49.397500000000008     47.284250000000000     47.436599999999999
C      47.357700000000001     48.737949999999998     46.326000000000001
C      48.080100000000002     48.830150000000003     50.559500000000000
C      46.873600000000003     49.297950000000000     50.023099999999999
C      49.111199999999997     47.066850000000002     45.992400000000004
C      48.220900000000000     48.062649999999991     45.426300000000005
H      50.210999999999999     48.077250000000006     50.080500000000001
H      45.789000000000001     49.832549999999998     48.238000000000000
H      50.140799999999999     46.544550000000001     47.789600000000000
H      46.604500000000002     49.544849999999997     45.828200000000002
H      48.195799999999998     48.665449999999993     51.671199999999999
H      45.934600000000003     49.694249999999997     50.794100000000000
H      49.284999999999997     46.167450000000002     45.459900000000005
H      48.140900000000002     48.203350000000000     44.328800000000001
