51

C      47.372199999999992     49.170050000000003     49.470899999999993
C      46.925500000000000     48.301850000000002     50.579499999999996
C      46.592600000000004     45.016649999999998     46.864300000000000
C      46.462800000000001     44.118150000000000     48.072200000000009
C      48.027600000000007     48.386450000000011     48.392099999999999
C      47.250700000000009     46.917950000000005     50.610399999999998
C      46.863800000000012     46.452550000000002     46.886000000000010
C      46.500600000000006     45.015850000000000     49.194100000000006
C      47.472400000000007     46.984949999999998     48.112400000000008
C      47.160900000000012     46.237850000000009     49.379000000000005
C      47.234100000000012     50.566249999999997     49.442099999999996
C      46.723500000000001     51.170949999999991     50.708200000000005
C      46.403700000000001     50.366150000000005     51.785600000000002
C      46.588800000000006     48.972549999999998     51.745100000000008
C      46.957900000000009     44.489249999999998     45.522800000000004
C      46.119399999999999     43.412550000000010     45.200100000000006
C      45.470100000000002     42.634150000000005     46.243499999999997
C      46.090500000000006     42.820850000000007     47.465100000000007
C      48.205200000000005     51.280349999999999     48.551100000000005
C      48.147700000000015     52.690550000000002     48.777299999999997
C      47.891000000000020     53.245450000000005     50.020300000000006
C      47.090200000000010     52.564449999999994     50.990600000000001
C      48.325500000000005     48.974649999999997     47.068100000000001
C      48.449500000000015     50.870750000000001     47.136700000000005
C      47.038600000000002     46.176050000000004     51.930500000000009
C      49.218800000000016     48.277050000000003     46.020600000000002
C      50.561700000000002     48.078950000000006     46.177500000000009
C      45.640100000000004     43.295450000000002     43.851600000000005
C      46.655900000000003     47.350450000000009     45.659400000000005
H      46.585700000000003     44.663350000000008     50.175500000000000
H      46.021799999999999     50.881050000000002     52.863900000000001
H      46.562000000000012     48.368050000000011     52.722499999999997
H      47.454000000000008     44.512150000000005     44.637799999999999
H      44.940500000000000     41.650250000000000     46.240400000000008
H      45.440400000000011     42.266150000000010     48.097600000000000
H      48.712100000000007     53.259550000000004     48.049599999999998
H      48.168400000000020     54.349750000000000     50.243600000000001
H      47.378700000000009     53.080150000000003     51.956100000000006
H      47.364100000000008     49.202449999999999     46.476300000000009
H      49.467400000000012     51.423949999999991     46.682299999999998
H      47.532200000000003     51.027749999999997     46.283200000000008
H      46.087500000000006     46.672750000000008     52.313100000000006
H      48.814500000000010     47.903350000000003     45.061400000000006
H      51.039400000000001     47.838250000000002     45.386600000000001
H      51.059500000000000     48.492649999999998     46.922499999999999
H      44.993100000000013     42.588850000000008     43.136099999999999
H      46.251400000000004     43.735450000000000     43.226100000000002
H      46.344600000000000     48.363050000000001     45.745100000000008
H      47.368300000000005     46.701350000000005     45.038499999999999
H      45.513900000000007     46.799750000000003     44.942999999999998
O      47.749900000000011     45.341750000000005     52.501800000000003
