18

C      47.392649999999989     47.353649999999988     47.259699999999995
C      47.015910000000005     48.689249999999994     47.676400000000001
C      46.886070000000004     45.997049999999994     47.657299999999999
C      46.221710000000002     48.446750000000002     48.905600000000000
C      48.720849999999999     47.191949999999999     46.700299999999999
C      47.483450000000005     49.864150000000002     47.058600000000006
C      46.618819999999999     45.878749999999989     49.030300000000004
C      46.520340000000004     47.208549999999995     49.539800000000000
C      49.309320000000000     48.365549999999992     46.353999999999999
C      48.677230000000009     49.584449999999997     46.477400000000003
H      46.758150000000001     45.228949999999990     46.772800000000004
H      45.758589999999998     49.265149999999998     49.443900000000006
H      49.152340000000009     46.200949999999999     46.316099999999999
H      47.070050000000009     50.920150000000000     47.165500000000002
H      46.033630000000002     45.079850000000000     49.444499999999998
H      45.867609999999999     47.404949999999992     50.330900000000000
H      50.241410000000002     48.244049999999994     45.669100000000000
H      49.404080000000008     50.366449999999993     45.954100000000004
