50

C      48.366799999999998     47.574449999999992     49.244099999999996
C      47.665799999999997     46.576650000000001     48.242400000000004
C      49.117700000000006     51.214550000000003     46.144900000000000
C      48.245500000000000     50.434750000000008     45.112000000000002
C      49.024799999999999     48.792250000000010     48.938299999999998
C      47.561300000000003     47.183850000000007     46.990400000000001
C      49.063800000000008     50.744950000000003     47.581200000000003
C      47.951900000000002     49.077950000000001     45.361600000000003
C      48.814200000000000     49.350549999999998     47.593899999999998
C      48.155799999999999     48.412350000000004     46.640799999999999
C      48.607099999999996     46.763850000000005     50.383800000000001
C      48.022399999999998     45.409950000000009     50.712099999999992
C      47.241300000000003     44.540050000000008     49.778399999999991
C      47.070100000000004     45.287750000000003     48.594000000000001
C      49.844500000000004     52.274450000000002     45.797600000000003
C      49.950200000000002     52.690150000000003     44.379500000000000
C      49.058700000000009     52.057350000000000     43.489699999999999
C      48.156900000000000     50.988350000000011     43.818100000000001
C      49.810200000000002     47.284750000000003     51.019199999999998
C      50.202900000000007     46.609650000000002     52.203000000000003
C      49.573500000000003     45.506950000000003     52.725099999999998
C      48.535400000000003     44.778050000000007     51.878599999999999
C      49.896499999999996     49.247750000000011     49.921700000000001
C      47.344299999999997     42.721350000000001     46.623400000000004
C      46.591900000000003     43.021749999999997     47.536799999999999
C      46.313300000000005     44.544850000000011     47.561100000000003
C      50.799900000000001     53.177149999999997     46.503200000000000
C      46.188200000000002     42.465150000000008     48.577100000000002
C      45.314799999999998     44.836750000000009     46.721299999999999
H      49.549599999999991     51.353050000000010     48.466200000000001
H      47.993900000000004     48.504050000000007     44.404899999999998
H      46.744999999999997     43.754350000000002     50.130099999999999
H      50.955300000000001     53.258650000000003     44.163800000000002
H      48.977300000000000     52.337750000000000     42.490499999999997
H      47.557099999999998     50.619650000000007     43.061100000000003
H      50.967499999999994     46.914050000000003     52.756900000000002
H      49.971299999999999     44.878550000000004     53.509500000000003
H      50.372100000000003     50.328450000000004     49.803899999999999
H      46.922600000000003     42.705750000000009     45.576999999999998
H      46.860199999999999     46.720650000000006     46.265500000000003
H      51.164200000000001     54.319749999999999     46.194299999999998
H      46.341700000000003     44.258949999999999     52.025400000000005
H      45.244100000000003     42.223150000000004     48.701999999999998
H      46.952900000000007     41.741050000000001     49.267699999999998
H      47.780000000000001     41.680250000000001     46.526899999999998
H      45.063000000000002     43.922350000000009     46.043900000000001
H      44.835799999999999     45.882850000000005     46.511499999999998
N      50.324400000000004     48.466750000000005     50.917499999999990
O      51.050600000000010     52.826450000000008     47.709000000000003
S      47.485100000000003     43.640850000000000     52.752000000000002
