46

C      51.372199999999992     46.396299999999997     48.167699999999996
C      47.549799999999998     48.980100000000000     49.409599999999998
C      46.567199999999993     48.936399999999999     48.293400000000005
C      48.124500000000005     44.746600000000008     44.812200000000004
C      48.698100000000004     48.096600000000002     49.797599999999989
C      49.867500000000000     44.354900000000008     46.286199999999994
C      46.901900000000005     47.992799999999995     47.233100000000007
C      47.451400000000000     45.962700000000005     45.295500000000004
C      49.970999999999997     45.874100000000006     48.484499999999997
C      48.965899999999998     47.119800000000005     48.723799999999997
C      49.309199999999997     45.380299999999998     47.099400000000003
C      48.059699999999999     47.127000000000002     47.688000000000002
C      48.227899999999998     46.113700000000001     46.748400000000004
C      46.131200000000000     47.900900000000000     45.971000000000004
C      46.425499999999992     46.879200000000004     45.000600000000006
C      47.655200000000001     50.186700000000009     50.212900000000005
C      46.577599999999997     51.244900000000008     50.159699999999987
C      45.553999999999995     50.953800000000008     49.168399999999991
C      45.553999999999995     50.012599999999999     48.179900000000004
C      44.617700000000006     49.701000000000001     47.111100000000008
C      44.966400000000000     48.701700000000010     46.228899999999996
C      49.639800000000001     48.301400000000008     50.845900000000000
C      50.085799999999999     49.591799999999999     50.836199999999991
C      49.101499999999994     50.414200000000001     50.393299999999996
C      51.517800000000001     49.933000000000000     51.297899999999998
C      49.380699999999997     51.792899999999996     49.851399999999998
H      51.491800000000005     47.383100000000006     48.587199999999996
H      51.624599999999994     47.026400000000002     47.303600000000003
H      52.288199999999996     46.079600000000006     48.930699999999987
H      44.505999999999993     48.519100000000002     45.192300000000003
H      48.249199999999995     44.445000000000000     43.726100000000002
H      49.798399999999994     45.297900000000006     49.297999999999988
H      45.721899999999998     46.634099999999997     44.240099999999998
H      46.307200000000002     52.000999999999998     50.938900000000004
H      44.894299999999994     51.653500000000001     48.475800000000007
H      43.711800000000004     50.291100000000007     46.885400000000004
H      50.068900000000006     47.395400000000002     51.310999999999993
H      52.193000000000005     48.980399999999996     51.489899999999992
H      51.141500000000001     43.783200000000001     47.366299999999995
H      51.728500000000004     50.325400000000009     50.193600000000004
H      51.744300000000003     50.369800000000005     52.273899999999998
H      50.261500000000005     52.216799999999999     50.485500000000002
H      49.721899999999998     52.096399999999996     48.822699999999998
H      48.114700000000006     52.170499999999997     49.847300000000004
N      49.295799999999993     44.006599999999999     45.192099999999996
O      51.186900000000001     44.089000000000006     46.456199999999995
