6

C      47.578845499999993     48.298499999999990     47.818749999999994
C      48.507325499999993     47.521599999999999     47.914750000000005
H      48.936095500000008     47.205700000000000     48.869449999999993
H      49.289525499999996     47.860499999999995     47.319350000000000
H      47.288033500000004     48.794300000000000     48.690350000000002
H      46.710474500000004     47.898299999999999     47.130550000000007
