18

C      47.164249999999996     47.680149999999990     47.947399999999988
C      47.977550000000001     48.824650000000005     48.442299999999996
C      48.204749999999997     46.477550000000008     47.805900000000001
C      49.414449999999995     48.906549999999996     48.294999999999995
C      46.006350000000005     47.858050000000006     47.125099999999996
C      47.233650000000004     49.945650000000001     48.868800000000000
C      49.578150000000001     46.544049999999999     47.892499999999991
C      50.197750000000006     47.846550000000008     47.835299999999997
C      45.482350000000004     49.115850000000009     47.237199999999994
C      45.963650000000008     49.923349999999999     48.334699999999991
H      48.299849999999999     45.214349999999996     47.967099999999995
H      49.767749999999999     49.931350000000009     48.505199999999995
H      45.682150000000000     47.122950000000003     46.396999999999998
H      47.519050000000000     50.785650000000004     49.603000000000002
H      50.067450000000001     45.591750000000005     48.204400000000000
H      51.319949999999999     47.747650000000007     47.521300000000004
H      44.680050000000001     49.593750000000000     46.691200000000002
H      45.160249999999998     50.726650000000006     48.583099999999995
