41

C      48.422549999999987     48.248199999999997     47.421349999999990
C      48.651249999999983     49.516600000000004     46.737250000000010
C      48.727950000000000     49.809300000000000     52.124150000000007
C      49.838249999999995     50.511500000000005     51.692150000000005
C      47.973949999999995     47.942300000000003     48.811749999999996
C      49.208949999999994     50.458800000000004     47.860550000000011
C      47.936249999999994     49.099300000000007     51.041450000000005
C      49.821349999999988     50.886900000000004     50.279050000000005
C      48.391749999999995     48.932300000000005     49.765750000000004
C      48.955449999999992     50.264599999999994     49.213749999999997
C      48.243349999999992     47.213700000000003     46.378149999999998
C      48.284449999999993     47.318300000000001     44.912650000000006
C      48.420849999999994     48.793600000000005     44.482850000000006
C      48.915949999999988     49.630199999999995     45.428150000000009
C      47.318449999999991     46.650900000000000     48.966749999999998
C      47.290749999999996     45.687109999999997     47.930550000000004
C      47.444349999999993     46.030650000000001     46.600550000000005
C      49.750250000000001     50.179700000000004     44.663249999999998
C      46.654049999999991     44.338300000000004     48.260050000000000
C      47.022949999999994     49.584499999999998     44.056750000000001
C      50.192050000000002     51.888200000000005     49.811150000000005
C      46.237249999999996     50.371900000000004     45.217250000000000
H      48.358249999999991     50.107899999999994     53.118450000000003
H      50.546049999999994     51.141200000000005     52.356749999999998
H      49.709449999999997     51.317100000000003     47.382750000000009
H      46.888049999999993     46.321240000000003     49.849550000000001
H      47.151349999999994     45.171660000000003     45.726850000000006
H      49.726049999999994     50.556400000000004     43.612349999999999
H      46.335449999999994     49.215800000000002     52.028150000000004
H      46.797449999999991     44.300559999999997     49.345950000000009
H      47.352449999999990     43.431400000000004     48.020050000000005
H      45.989749999999994     43.991869999999999     47.605049999999999
H      46.510549999999995     48.214300000000001     43.798450000000010
H      46.866349999999997     49.805799999999998     42.881549999999997
H      50.709650000000003     52.568599999999996     50.462350000000008
H      49.460449999999987     52.565900000000006     49.137050000000009
H      45.290349999999997     50.251399999999997     45.100250000000010
H      46.605349999999994     50.224499999999999     46.190750000000001
H      46.306049999999992     51.525300000000009     45.180550000000004
O      46.756649999999993     48.599299999999999     51.461350000000003
O      48.241049999999994     46.248049999999999     44.326349999999998
