18

C      47.759799999999991     48.377849999999995     47.972979999999986
C      48.312700000000000     47.014749999999999     47.999779999999987
C      47.837800000000001     49.360850000000006     49.102979999999988
C      49.012599999999999     46.533350000000006     49.178680000000000
C      46.993899999999996     48.625949999999996     46.769979999999990
C      48.704899999999995     46.393750000000004     46.658579999999986
C      48.286799999999999     48.906650000000006     50.248756000000000
C      48.768900000000002     47.470750000000002     50.214838999999998
C      46.956099999999999     47.962450000000004     45.550879999999992
C      47.994500000000002     46.795950000000005     45.500679999999988
H      47.414000000000001     50.402149999999999     49.036479999999997
H      49.871099999999998     46.005650000000003     49.575479999999999
H      46.271699999999996     49.361750000000008     46.980579999999989
H      49.577100000000002     45.597850000000001     46.647179999999992
H      48.328699999999998     49.563049999999997     51.265120000000010
H      49.644099999999995     47.159050000000001     50.993879999999990
H      46.128900000000002     48.224450000000004     44.757880000000000
H      48.757100000000001     46.654450000000004     44.734879999999990
