39

C      47.416449999999990     47.619149999999998     47.907749999999993
C      47.532150000000001     48.690090000000005     48.958650000000006
C      51.015750000000004     45.365431000000001     50.412050000000008
C      51.349049999999991     46.496840000000006     51.168549999999996
C      48.070050000000009     46.482140000000001     48.335350000000005
C      48.747050000000002     48.785510000000002     49.751350000000002
C      49.808450000000001     45.049972000000004     49.944350000000014
C      50.485050000000001     47.518980000000006     50.926950000000005
C      48.927550000000004     46.271050000000002     49.444450000000003
C      49.356049999999996     47.418960000000006     50.092550000000003
C      46.572650000000003     47.638390000000001     46.713750000000005
C      45.968150000000001     48.996830000000003     46.435249999999996
C      46.130050000000004     50.042699999999996     47.369150000000005
C      46.721950000000000     49.825720000000004     48.644450000000006
C      47.806150000000002     45.167745000000004     47.598450000000000
C      47.104450000000000     45.899790000000003     44.610650000000007
C      46.781450000000000     46.766750000000002     45.598950000000002
C      49.151150000000001     50.008160000000004     50.528350000000003
C      49.693849999999998     50.859499999999997     51.459450000000004
C      45.640549999999998     51.306179999999998     46.734449999999995
C      45.299350000000004     49.320600000000013     45.140450000000001
C      44.673150000000000     50.667460000000005     45.399850000000001
H      51.742550000000001     44.631750000000004     50.252250000000004
H      52.343550000000000     46.426520000000004     51.905350000000013
H      50.719650000000001     48.493960000000001     51.573850000000007
H      47.025950000000002     44.634350000000005     48.243750000000006
H      47.183350000000004     45.728418000000005     46.906350000000003
H      47.436750000000004     44.893850500000006     44.537549999999996
H      47.497550000000004     46.395100000000006     43.588549999999998
H      48.472250000000003     45.076729000000000     46.690250000000006
H      49.196250000000006     51.662120000000002     51.906550000000010
H      46.663350000000001     50.405760000000001     49.569250000000011
H      50.256550000000004     50.612840000000006     52.411450000000002
H      46.421050000000001     52.024150000000006     46.502549999999999
H      44.926150000000000     52.006129999999999     47.170349999999999
H      45.243150000000000     49.012860000000003     44.045850000000002
H      43.656450000000000     50.628530000000005     45.912850000000006
H      45.009850000000000     51.587740000000011     44.896349999999998
O      49.383949999999999     43.975849999999994     49.535750000000007
