75

C      49.725004999999989     51.970100000000002     46.016384999999993
C      48.963804999999994     52.384299999999996     44.987785000000002
C      46.355705000000000     48.591799999999992     45.250185000000002
C      49.904904999999999     50.588600000000000     46.230684999999994
C      48.218404999999997     51.409700000000001     44.073284999999998
C      47.178604999999997     47.871799999999993     46.213084999999992
C      48.647005000000000     49.841099999999997     45.831985000000003
C      47.712104999999994     50.280000000000001     44.804684999999992
C      50.850404999999995     52.672899999999998     46.579584999999994
C      50.439605000000000     54.176900000000003     46.349684999999994
C      49.853904999999997     54.693799999999996     45.192484999999991
C      48.897904999999994     53.778400000000005     44.646185000000003
C      51.987605000000002     52.263700000000000     47.339484999999996
C      52.608604999999997     53.335899999999995     47.984084999999993
C      52.247204999999994     54.663600000000002     47.756384999999995
C      51.049205000000001     55.182800000000000     47.058184999999995
C      52.139904999999999     50.849999999999994     47.251184999999992
C      51.052605000000000     50.107100000000003     47.002984999999995
C      48.312704999999994     48.638499999999993     46.599584999999990
C      47.313805000000002     51.889600000000002     43.044884999999994
C      48.059404999999998     54.289000000000001     43.423085000000000
C      46.810504999999999     54.338099999999997     43.802684999999997
C      48.438204999999996     45.489999999999995     46.272584999999992
C      43.456404999999997     42.922499999999999     50.683859300000002
C      48.360904999999995     44.227400000000003     46.941884999999999
C      44.484404999999995     41.943700000000007     50.459885000000000
C      47.281504999999996     46.421199999999999     46.551085000000000
C      43.342304999999996     44.173299999999998     50.186885000000004
C      47.510104999999996     43.518400000000000     47.861885000000001
C      45.306004999999999     42.439400000000006     49.279685000000001
C      45.127004999999997     46.504999999999995     47.698984999999993
C      44.172105000000002     45.961100000000002     48.581584999999990
C      46.348104999999997     45.837500000000006     47.334384999999997
C      44.304004999999997     44.696699999999993     49.295985000000002
C      46.400504999999995     44.465400000000002     48.036384999999996
C      45.354504999999996     43.794399999999996     48.738985000000000
C      47.220104999999997     42.184399999999997     48.112484999999992
C      46.326504999999997     41.562300000000008     48.884284999999991
C      49.557604999999995     45.908000000000001     45.539784999999995
C      50.721305000000001     45.247600000000006     45.618084999999994
C      50.425004999999999     44.219099999999997     46.435784999999996
C      49.511105000000001     43.210200000000000     46.904785000000004
C      49.278205000000000     41.730000000000004     46.859684999999999
C      48.087004999999998     41.225800000000007     47.336084999999997
C      42.716654999999996     42.504800000000003     51.820554999999999
C      42.851954999999997     41.439499999999995     52.771035000000005
C      43.878904999999996     40.538899999999998     52.615875000000003
C      44.611604999999997     40.771200000000007     51.282168999999996
H      45.520105000000001     47.972899999999996     45.060085000000001
H      49.721904999999992     55.852000000000004     44.976284999999990
H      53.013004999999993     55.352300000000000     48.016184999999993
H      50.879504999999995     56.272999999999996     47.123384999999999
H      53.006405000000001     50.302999999999997     47.815484999999995
H      49.168104999999997     48.331999999999994     47.115785000000002
H      47.809704999999994     52.688999999999993     42.333784999999992
H      46.367604999999998     51.453800000000001     42.789884999999998
H      48.606704999999998     54.730499999999992     42.605384999999998
H      54.158405000000002     52.479799999999997     49.008484999999993
H      51.210004999999995     48.983599999999996     47.231285000000000
H      45.904604999999997     54.667900000000003     43.352584999999991
H      46.778804999999998     54.208399999999997     44.929784999999995
H      42.713175000000000     45.001199999999997     50.795313000000007
H      44.967104999999997     47.596599999999995     47.367984999999990
H      43.357005000000001     46.373300000000000     48.520785000000004
H      46.074704999999994     40.520200000000003     48.842384999999993
H      49.207304999999998     47.300100000000000     45.190084999999996
H      51.468604999999997     45.785700000000006     45.041784999999990
H      50.006204999999994     40.955300000000008     46.477684999999994
H      47.937604999999998     40.127400000000009     47.176884999999999
H      41.841594999999998     43.148099999999999     52.108204999999998
H      42.202464999999997     41.373300000000000     53.666215000000008
H      43.733905000000000     39.727000000000004     53.296424999999999
H      45.545604999999995     40.475200000000001     51.036421000000004
N      46.657905000000000     49.573399999999992     44.476784999999992
O      53.577505000000002     53.305300000000003     48.997484999999998
