57

C      44.767199999999988     48.909999999999997     47.489219999999989
C      51.827500000000001     46.884400000000007     47.059069999999998
C      44.699800000000010     48.732300000000002     48.890759999999993
C      52.039200000000008     47.204699999999995     48.484729999999999
C      45.856200000000001     48.596799999999995     46.652929999999998
C      50.690400000000011     47.469699999999996     46.452559999999998
C      45.747100000000003     47.693599999999996     50.899639999999998
C      50.638600000000011     46.854400000000005     50.610539999999993
C      46.860500000000002     47.253700000000002     51.599439999999994
C      49.349600000000009     46.803000000000004     51.194640000000000
C      48.276800000000009     47.776500000000006     46.483349999999994
C      45.794300000000007     48.127299999999998     49.458929999999988
C      50.791600000000003     47.243699999999997     49.184300000000000
C      47.972700000000003     46.927100000000003     50.724439999999994
C      47.148200000000003     48.195799999999998     47.285939999999997
C      49.516000000000005     47.335199999999993     47.234639999999999
C      46.950900000000004     47.812199999999997     48.690800000000003
C      49.441700000000012     47.275399999999998     48.630949999999991
C      48.144600000000011     47.254899999999999     49.217769999999994
C      43.466999999999999     49.030300000000004     46.599229999999999
C      42.373400000000004     49.142400000000002     47.323619999999998
C      42.227699999999999     49.002999999999993     48.728819999999992
C      43.356999999999999     48.874100000000006     49.584219999999995
C      43.344200000000001     48.544999999999995     51.015139999999995
C      44.500100000000003     48.018300000000004     51.631839999999997
C      54.004000000000005     46.349899999999998     47.037069999999993
C      54.285700000000006     46.734500000000004     48.321829999999999
C      53.329200000000000     47.206499999999998     49.172990000000006
C      43.389800000000008     49.324900000000007     45.181030000000000
C      47.967900000000000     47.570399999999999     45.011129999999994
C      46.837600000000009     46.590799999999994     44.992789999999999
C      42.335200000000000     49.338799999999999     51.878039999999991
C      46.300900000000013     46.308600000000006     43.802099999999996
H      50.674500000000009     47.408200000000001     45.455979999999997
H      49.370500000000007     46.184699999999999     52.161739999999988
H      51.361699999999999     46.216000000000001     51.163440000000001
H      46.761200000000002     46.937900000000006     52.565940000000005
H      41.168999999999997     49.118299999999998     49.072169999999993
H      44.432200000000009     48.210900000000002     52.641140000000000
H      55.272000000000006     46.308500000000002     48.733119999999992
H      53.218500000000006     47.303400000000003     50.361239999999988
H      45.781200000000013     48.650299999999994     45.522109999999998
H      47.393900000000002     48.845499999999994     43.377809999999997
H      44.116200000000006     50.023900000000005     44.784319999999994
H      46.567599999999999     46.346700000000006     45.928789999999999
H      42.427999999999997     50.389800000000001     51.655639999999998
H      40.706699999999998     48.364899999999999     46.951629999999994
H      55.293300000000002     46.472500000000004     45.726559999999999
H      45.377300000000005     45.610199999999999     43.690429999999999
H      46.870300000000000     46.537399999999998     42.962460000000000
H      49.036500000000004     47.264599999999994     44.778829999999999
H      42.416899999999998     49.231000000000002     44.690449999999998
N      52.899600000000007     46.364899999999999     46.474529999999994
O      47.634900000000002     48.763399999999997     44.340329999999994
O      41.892499999999998     49.168200000000006     53.037540000000000
O      41.161500000000004     49.301499999999997     46.697849999999995
O      55.134000000000000     45.794000000000004     46.361199999999997
