5

C      48.032899999999991     47.600649999999987     48.207299999999996
H      48.287599999999998     48.747550000000004     48.387100000000004
H      47.458799999999997     47.397250000000000     47.253100000000003
H      49.047899999999998     47.252449999999996     48.126800000000003
H      46.952100000000002     47.598450000000000     48.746899999999997
