18

C      47.382050000000000     47.669749999999986     47.595799999999997
C      48.227550000000008     48.541950000000000     48.441400000000009
C      46.019950000000001     48.016449999999992     47.050900000000006
C      47.695950000000003     49.804050000000004     48.818599999999996
C      47.907350000000008     46.368150000000000     47.215800000000009
C      49.533950000000004     48.156750000000002     48.695500000000003
C      45.720350000000003     49.341149999999999     47.430799999999998
C      46.484350000000006     50.186049999999994     48.277099999999997
C      49.212350000000001     46.000450000000001     47.524499999999996
C      50.018650000000008     46.941949999999991     48.088699999999996
H      44.970850000000006     47.661349999999999     46.978000000000002
H      48.368950000000005     50.440749999999994     49.296600000000005
H      47.299550000000004     45.647750000000002     46.703399999999995
H      50.208650000000006     48.857950000000002     49.175900000000006
H      44.876750000000001     49.746749999999992     46.898599999999995
H      46.118450000000003     51.024050000000003     48.338500000000003
H      49.630250000000004     44.975949999999997     46.992799999999995
H      51.123249999999999     47.061650000000000     47.478400000000001
