24

C      47.614399999999996     48.572199999999995     49.922599999999996
C      48.571899999999999     48.444099999999999     48.782600000000002
C      46.211000000000006     48.155300000000004     49.915399999999998
C      47.995200000000004     47.709600000000002     47.685400000000001
C      48.158500000000004     49.009499999999996     51.176099999999991
C      49.795400000000001     49.036899999999996     48.927000000000000
C      45.639400000000009     47.743500000000004     48.678800000000003
C      46.577800000000003     47.459700000000005     47.621099999999998
C      49.392300000000006     49.707199999999993     51.151600000000002
C      50.264099999999999     49.944399999999995     50.028199999999998
C      46.408600000000007     46.817000000000000     45.239800000000002
C      45.932700000000004     47.624299999999998     46.349699999999999
H      45.501200000000004     48.337700000000005     50.755800000000008
H      48.610100000000003     47.533600000000000     46.833100000000002
H      47.814700000000002     48.600400000000000     52.110799999999998
H      50.612500000000004     49.241300000000003     48.068700000000000
H      44.589900000000000     47.202099999999994     48.744399999999999
H      49.803600000000003     50.122700000000002     51.995400000000004
H      51.410100000000000     50.069300000000005     50.275400000000005
H      45.878800000000005     45.877299999999998     44.933399999999999
H      45.685300000000005     46.570599999999992     43.889200000000002
H      47.517700000000005     46.696999999999996     44.804900000000004
H      44.769000000000005     47.800400000000003     46.506700000000002
H      46.362400000000008     48.789899999999996     45.848599999999998
