18

C      48.347949999999997     47.684320000000000     47.685249999999989
C      47.480250000000005     48.860339999999994     48.099349999999994
C      49.784150000000004     47.980370000000008     47.856749999999991
C      48.050050000000006     49.815960000000004     48.967549999999996
C      47.583250000000007     46.504189999999994     47.301449999999996
C      46.123150000000003     48.740169999999992     47.874150000000000
C      50.361150000000002     48.729420000000005     48.838649999999987
C      49.383550000000007     49.674130000000005     49.273449999999997
C      46.364150000000002     46.796480000000003     46.634249999999994
C      45.416050000000006     47.738909999999990     46.974449999999997
H      50.593850000000010     47.199839999999995     47.554449999999996
H      47.476650000000006     50.464979999999997     49.448049999999995
H      48.170550000000006     45.535020000000003     47.062049999999999
H      45.405950000000004     49.659079999999989     47.978749999999991
H      51.515049999999995     48.783699999999996     49.070650000000001
H      49.901750000000014     50.288640000000001     50.012850000000000
H      46.020550000000007     45.893569999999997     45.987150000000000
H      44.484950000000005     47.862009999999998     46.283449999999995
