50

C      45.676229999999990     47.028399999999991     43.630019999999988
C      48.584730000000008     47.857290000000006     49.842420000000004
C      49.264730000000000     49.299290000000013     49.863020000000006
C      47.807930000000013     47.869389999999996     42.798919999999995
C      51.432130000000001     50.319389999999999     44.696920000000006
C      47.608029999999999     47.534090000000006     48.854519999999994
C      49.014130000000009     48.211390000000009     42.591020000000000
C      50.918530000000004     49.594290000000001     43.695819999999998
C      49.729830000000007     49.436890000000005     48.529219999999995
C      50.563330000000008     50.325690000000009     45.936819999999997
C      47.153030000000001     47.598590000000002     46.415019999999998
C      49.589330000000004     48.824590000000001     43.762219999999999
C      47.983530000000002     48.070390000000003     47.547319999999999
C      47.739230000000006     47.684690000000003     45.158320000000003
C      49.108029999999999     49.042890000000000     47.269419999999997
C      49.528630000000007     49.301890000000000     45.950720000000004
C      49.091430000000003     48.344690000000000     44.980819999999994
C      50.761330000000001     50.493390000000005     48.350020000000001
C      51.158230000000003     50.874890000000008     47.220720000000000
C      48.627330000000001     47.264690000000002     51.053020000000004
C      49.470930000000010     47.624290000000002     52.325720000000004
C      49.929430000000011     48.877490000000009     52.401920000000004
C      50.039529999999999     49.557590000000005     51.060620000000000
C      50.919229999999999     50.619889999999998     50.740520000000004
C      51.077630000000013     51.438790000000012     49.514020000000002
C      49.900329999999997     46.598110000000005     53.236810000000006
C      49.003929999999997     45.552329999999998     53.928860000000014
C      49.116530000000012     44.195390000000003     53.947609999999997
C      46.846030000000013     46.547920000000005     48.852019999999996
H      43.689369999999997     46.522739999999999     43.741619999999998
H      47.314230000000009     47.297489999999996     42.156419999999997
H      52.310630000000003     50.753290000000007     44.619320000000002
H      51.711230000000000     49.431089999999998     42.845619999999997
H      46.092529999999996     47.408990000000003     46.406620000000004
H      51.677030000000002     51.830089999999998     46.981319999999997
H      47.970430000000007     46.392880000000005     51.532319999999999
H      50.873829999999998     48.996690000000001     53.010121000000012
H      51.342630000000000     50.938389999999998     51.794319999999999
H      50.445630000000008     52.363190000000003     50.039119999999997
H      52.112530000000007     52.048389999999998     49.469920000000002
H      50.690230000000000     48.094690000000014     41.777820000000006
H      48.459530000000001     43.812309999999997     54.558080000000004
H      49.933230000000009     43.636809999999997     53.485619999999997
H      48.028130000000004     46.221490000000003     54.085790000000003
H      45.863730000000004     46.606459999999998     48.362319999999997
H      46.742530000000002     45.941000000000003     49.896220000000000
N      44.763790000000000     46.403419999999997     43.213319999999996
N      47.014330000000001     47.591589999999997     43.983519999999999
O      51.009929999999997     46.956640000000007     53.556620000000009
O      49.825230000000005     47.881990000000002     41.441919999999996
