50

C      47.822149999999986     47.830299999999994     48.363699999999994
C      46.940950000000001     46.715899999999998     48.055500000000009
C      50.996250000000003     45.243500000000004     46.139899999999997
C      49.195949999999996     47.625799999999998     47.957099999999997
C      47.451250000000002     45.605899999999998     47.249600000000001
C      50.891750000000002     46.684800000000003     46.254400000000004
C      49.727450000000005     44.702700000000000     46.180999999999997
C      49.597449999999995     46.921199999999999     46.736199999999997
C      48.761750000000006     45.715100000000000     46.543199999999999
C      47.324550000000002     48.789000000000001     49.294500000000014
C      45.830849999999998     48.701400000000000     49.719500000000011
C      44.968750000000000     47.684899999999999     49.161699999999996
C      45.582149999999999     46.692299999999996     48.467900000000000
C      48.348249999999993     49.545299999999997     50.001400000000004
C      47.814449999999994     50.869399999999999     50.334000000000003
C      46.409750000000003     50.993200000000009     50.194000000000003
C      45.497250000000001     49.988800000000005     50.194800000000015
C      49.620949999999993     48.805399999999999     50.091800000000006
C      50.087149999999994     48.095399999999998     48.902100000000004
C      51.584649999999996     48.138500000000001     48.303200000000004
C      51.889349999999993     47.637200000000000     46.858199999999997
C      44.839550000000003     45.528199999999998     47.633099999999999
C      44.319150000000000     44.953099999999999     48.655699999999996
C      48.543850000000006     52.128300000000003     50.668000000000006
C      43.690249999999999     43.579799999999999     48.453500000000005
C      50.786850000000001     48.859199999999994     50.989800000000017
C      52.213149999999999     44.667800000000000     45.347800000000007
H      46.783649999999994     44.708700000000000     47.512700000000009
H      49.666950000000000     43.591500000000003     46.031100000000009
H      45.787050000000001     51.803500000000007     50.285499999999999
H      44.453550000000000     50.127999999999993     50.206000000000003
H      51.891450000000006     49.192600000000006     48.462600000000009
H      52.342150000000004     47.690500000000000     48.926500000000004
H      52.992850000000004     47.446800000000003     46.585000000000008
H      51.697550000000007     48.549100000000003     46.161200000000008
H      44.514350000000000     45.293600000000005     49.636499999999998
H      50.922650000000004     49.629699999999993     51.805599999999998
H      43.219549999999998     46.979999999999997     48.769400000000005
H      44.463450000000002     42.740900000000003     48.155699999999996
H      42.983750000000001     43.592700000000001     47.586500000000001
H      43.093950000000000     43.256099999999996     49.448800000000006
H      47.980350000000001     53.259099999999997     50.874600000000001
H      51.399450000000002     48.075699999999991     51.298900000000003
H      53.016249999999999     45.349499999999999     45.332999999999998
H      52.046449999999993     44.163599999999995     44.194400000000002
H      52.525049999999993     43.849100000000000     45.979799999999997
H      44.336050000000000     44.486899999999999     46.016199999999998
O      44.922550000000001     45.236100000000000     46.328299999999999
O      49.672449999999998     52.205799999999989     50.233800000000002
O      43.577249999999999     47.801499999999997     49.215199999999996
