9

C      47.249199999999988     47.552799999999991     47.362349999999999
C      48.440700000000007     49.406699999999994     48.451049999999995
C      48.337599999999995     48.631200000000000     47.318849999999998
H      47.930099999999996     49.263799999999996     49.394949999999994
H      49.562200000000004     49.507200000000005     48.558450000000008
H      46.437799999999996     48.041599999999995     46.887249999999995
H      49.071200000000005     48.339499999999994     46.605050000000006
H      47.323599999999999     46.492799999999995     47.198350000000005
H      47.011299999999991     47.155799999999992     48.413849999999996
