18

C      48.534999999999989     47.505849999999995     47.862449999999995
C      47.749099999999999     48.810549999999999     47.912250000000007
C      48.504400000000004     46.672950000000007     46.698650000000008
C      47.028999999999996     49.444750000000006     46.806549999999994
C      48.897399999999990     46.919550000000001     49.078750000000007
C      47.624700000000004     49.545350000000006     49.125450000000008
C      47.918399999999998     47.267850000000003     45.631250000000001
C      47.439700000000002     48.694350000000007     45.675750000000001
C      48.622699999999995     47.427450000000000     50.312850000000005
C      48.236499999999999     48.799849999999999     50.319750000000006
H      48.776200000000003     45.492650000000005     46.644449999999999
H      46.479399999999998     50.442150000000005     46.909150000000004
H      49.520600000000002     45.765450000000001     48.919550000000008
H      47.394300000000001     50.507349999999995     49.303149999999995
H      47.846600000000002     46.643549999999998     44.691449999999996
H      47.262700000000002     49.204349999999998     44.755450000000003
H      48.834499999999991     47.044350000000001     51.308550000000004
H      48.069400000000002     49.333850000000005     51.190649999999998
