18

C      48.312399999999997     48.296499999999995     47.379749999999987
C      47.344000000000008     48.130499999999998     48.440250000000006
C      48.369799999999998     49.615000000000009     46.735150000000004
C      46.413700000000006     49.115800000000007     48.585550000000012
C      49.542200000000008     47.456800000000001     47.268850000000000
C      47.424900000000008     46.770099999999999     49.183250000000001
C      47.252300000000005     50.455500000000001     46.664249999999996
C      46.277699999999996     50.124800000000008     47.578650000000010
C      49.292699999999996     46.198800000000006     47.808149999999998
C      48.248199999999997     45.756000000000000     48.590850000000003
H      49.423599999999993     49.645800000000008     46.357249999999993
H      45.326000000000008     49.121900000000011     48.890749999999997
H      50.673999999999992     47.648600000000002     46.962850000000003
H      46.439800000000005     46.527900000000002     49.789550000000006
H      47.371800000000007     51.477000000000004     46.210449999999994
H      45.494500000000002     50.735700000000008     47.668750000000003
H      49.761399999999995     45.182100000000005     47.350049999999996
H      48.035499999999999     44.522999999999996     48.701549999999997
