18

C      47.957999999999991     47.262799999999991     48.979149999999990
C      47.973600000000005     48.326399999999992     48.037249999999993
C      46.694800000000001     46.997099999999996     49.480950000000000
C      46.953299999999999     49.314399999999999     47.811649999999993
C      49.179500000000004     46.482999999999997     48.655349999999999
C      49.020399999999995     48.608100000000000     46.962150000000001
C      45.885500000000000     48.160799999999995     49.535249999999998
C      46.163699999999999     49.459499999999998     48.937549999999995
C      50.209400000000002     46.843599999999995     47.806750000000001
C      50.105699999999999     47.908099999999997     46.855849999999997
H      46.327900000000000     46.038199999999996     49.951950000000004
H      47.227000000000004     49.742100000000001     46.993949999999998
H      49.132999999999996     45.743899999999996     49.551749999999991
H      48.787599999999998     49.376400000000004     46.221550000000001
H      44.833100000000002     47.985900000000001     49.509549999999997
H      45.403400000000005     50.256100000000004     48.859150000000000
H      51.166899999999998     46.466499999999996     47.773549999999993
H      50.914100000000005     48.135599999999997     46.048049999999996
