18

C      48.454369999999997     47.596221000000000     47.286450000000002
C      47.677740000000000     48.051240999999990     48.488450000000007
C      48.187160000000006     48.278091000000003     46.106450000000002
C      47.094189999999998     49.398041000000006     48.517150000000008
C      48.953490000000002     46.231391000000002     47.405950000000011
C      47.561059999999998     47.589130999999995     49.860850000000006
C      47.261480000000006     49.349200999999994     46.174050000000001
C      46.727500000000006     49.973930999999993     47.353150000000007
C      48.955190000000002     45.887790999999993     48.830150000000010
C      48.077600000000004     46.270730999999998     49.916950000000007
H      48.409769999999995     47.586371000000000     45.133350000000000
H      46.994759999999999     49.975161000000000     49.620550000000001
H      49.293890000000005     45.703951000000004     46.600450000000002
H      46.858909999999995     48.109730999999996     50.588450000000002
H      46.928079999999994     50.069550999999990     45.291150000000009
H      46.425910000000002     51.031290999999996     47.102750000000007
H      49.574089999999998     44.968709000000004     48.762450000000008
H      48.214730000000003     45.628133000000005     50.866650000000000
