18

C      47.529249999999998     48.333765000000000     48.019899999999993
C      48.696849999999998     47.481494999999995     47.994599999999991
C      46.402749999999997     48.064035000000004     48.882999999999996
C      48.625349999999997     46.264255000000006     48.761699999999990
C      47.250050000000002     49.399765000000002     46.995300000000000
C      49.719549999999998     48.210674999999995     47.414299999999997
C      46.398150000000001     46.893074999999996     49.711199999999991
C      47.662850000000006     46.094085000000007     49.717799999999997
C      48.244650000000007     49.857064999999992     46.270799999999994
C      49.581450000000004     49.387064999999993     46.586299999999994
H      45.547849999999997     48.787264999999991     48.613699999999994
H      49.445449999999994     45.441384999999997     48.884799999999998
H      46.333250000000007     49.842664999999997     47.077100000000002
H      50.463350000000005     47.625495000000001     47.516800000000003
H      45.536649999999995     46.760575000000003     50.419899999999998
H      47.845050000000001     45.259235000000004     50.419799999999995
H      47.957949999999997     50.740764999999996     45.580100000000002
H      50.372950000000003     50.044564999999992     45.937500000000000
