44

C      49.261449999999996     47.025049999999993     49.626999999999995
C      46.151850000000003     48.912150000000004     46.556899999999992
C      45.497549999999997     44.606749999999998     47.346200000000003
C      48.822849999999995     48.244149999999998     48.838400000000000
C      48.377050000000004     45.973350000000003     49.515599999999999
C      47.463649999999994     49.348649999999999     47.050499999999992
C      46.149750000000004     44.784649999999999     48.683999999999990
C      45.875250000000001     47.720750000000002     45.670700000000004
C      45.378850000000007     45.665649999999999     46.408399999999993
C      47.892950000000006     48.040450000000000     47.797999999999995
C      47.154249999999998     45.883149999999993     48.784699999999994
C      46.477049999999998     46.579950000000004     46.378200000000000
C      47.189349999999997     46.818649999999998     47.619399999999992
C      50.584750000000007     46.931249999999999     50.165100000000002
C      51.307350000000007     48.202350000000003     50.085199999999993
C      50.972649999999994     49.362749999999998     49.390899999999995
C      49.646149999999999     49.432049999999997     49.072399999999995
C      49.306850000000004     50.509650000000001     48.164999999999999
C      48.127350000000000     50.541350000000001     47.404699999999998
C      48.840049999999998     44.653849999999998     50.205399999999990
C      49.980950000000000     44.673150000000000     50.925899999999992
C      51.166950000000007     45.696449999999999     50.900399999999998
C      45.039750000000005     49.694550000000000     46.271200000000000
C      44.164350000000006     50.593849999999996     45.743699999999997
C      47.508249999999997     51.526949999999999     46.525699999999993
H      44.761950000000006     47.419649999999997     45.232999999999997
H      45.340650000000004     43.594450000000002     47.013199999999991
H      45.803750000000001     44.367249999999999     49.715100000000000
H      44.687649999999998     45.771349999999998     45.507399999999997
H      51.620349999999995     50.235650000000000     49.384499999999996
H      50.092250000000000     51.409749999999995     48.187999999999995
H      48.071649999999998     43.998649999999998     50.782099999999993
H      50.276950000000006     44.103049999999996     51.764599999999994
H      51.336750000000002     46.025050000000000     51.946800000000003
H      52.079349999999998     45.367049999999999     50.271099999999997
H      47.076950000000004     48.358550000000001     44.053199999999997
H      46.617749999999994     50.975349999999999     46.120699999999992
H      43.179150000000000     50.621549999999999     46.313099999999999
H      44.645149999999994     51.202849999999991     45.113499999999995
H      48.324649999999998     51.969150000000006     46.073199999999993
H      47.003549999999997     52.405549999999998     47.138799999999996
H      52.820850000000000     47.232450000000000     50.952599999999997
O      46.395550000000007     47.730550000000001     44.312999999999995
O      52.497450000000008     48.172350000000002     50.815099999999994
