5

C      48.215549999999993     48.031249999999986     48.082999999999998
H      48.411750000000005     47.130349999999993     48.861800000000002
H      47.428649999999998     47.373649999999998     47.998900000000006
H      47.785850000000003     48.869650000000007     48.682999999999993
H      48.571350000000002     48.044749999999993     47.138199999999998
