47

C      42.825499999999991     44.812249999999992     50.657849999999989
C      50.196199999999997     48.171950000000010     47.689849999999993
C      43.933000000000000     45.566050000000004     48.477549999999994
C      49.191200000000002     49.074350000000010     47.510249999999999
C      43.737800000000000     46.981350000000006     48.567349999999998
C      49.909799999999997     46.729350000000011     47.769749999999995
C      44.802600000000005     44.893450000000001     47.272549999999995
C      47.822799999999994     48.651049999999998     47.918049999999994
C      45.005800000000001     47.601950000000002     48.128649999999993
C      47.651599999999995     44.943150000000003     47.684249999999992
C      48.532699999999998     46.118650000000002     47.765949999999997
C      46.252100000000006     45.323850000000007     47.564449999999994
C      47.590600000000002     47.235650000000007     47.699749999999995
C      46.185600000000001     46.799350000000004     47.700549999999993
C      46.585900000000002     49.509349999999998     47.912250000000000
C      45.232800000000005     48.873150000000010     47.893850000000000
C      51.483299999999993     48.752250000000004     47.711849999999998
C      51.725699999999996     50.164050000000003     47.343750000000000
C      50.620899999999999     50.832850000000008     46.641149999999996
C      49.269399999999997     50.369050000000001     46.896649999999994
C      48.186799999999998     51.224750000000000     46.545749999999998
C      46.910400000000003     50.821150000000003     47.052149999999997
C      51.039899999999996     46.094750000000005     48.083249999999992
C      52.255999999999993     46.651949999999999     48.613549999999996
C      52.568700000000000     48.002650000000003     48.373349999999995
C      53.186900000000001     50.432650000000010     47.567650000000000
C      43.522500000000001     44.609450000000010     49.536850000000001
C      50.692399999999999     51.532250000000005     45.264249999999997
H      42.574499999999993     43.992950000000008     51.417950000000005
H      42.400399999999998     45.948750000000004     50.531849999999991
H      42.779199999999996     47.400250000000000     48.781649999999999
H      44.778500000000001     43.697749999999999     47.059349999999995
H      47.754299999999994     43.791650000000004     47.353249999999996
H      44.476800000000004     49.625150000000005     47.665349999999997
H      48.387499999999996     52.099750000000000     45.796049999999994
H      46.283600000000000     51.705449999999999     46.360149999999997
H      51.016100000000002     45.060050000000004     48.420649999999995
H      53.050300000000000     45.963549999999998     49.101050000000001
H      53.569399999999995     48.181250000000006     48.310549999999992
H      52.942100000000003     50.024450000000002     48.896649999999994
H      53.599600000000002     49.918950000000009     46.628549999999997
H      53.262200000000000     51.655349999999999     47.598450000000000
H      43.991599999999998     43.617649999999998     49.207149999999999
H      44.248299999999993     45.303250000000006     46.253049999999995
H      49.578700000000005     51.236249999999998     44.752949999999998
H      51.351199999999999     51.134450000000001     44.582049999999995
H      51.196400000000004     52.382350000000002     45.334849999999996
