18

C      47.327299999999987     48.464469999999992     48.602499999999992
C      48.289999999999992     47.808717999999999     47.619899999999994
C      47.044999999999995     49.839759999999998     48.316299999999998
C      49.431399999999996     48.497429999999994     46.738599999999998
C      46.685399999999994     47.828426000000007     49.670200000000001
C      48.121799999999993     46.304190000000020     47.614600000000003
C      47.858699999999999     50.374710000000007     47.281700000000001
C      48.953399999999988     49.795980000000000     46.583999999999996
C      46.493499999999997     46.428789999999992     49.555699999999995
C      47.403199999999998     45.705090000000013     48.717800000000004
H      46.356299999999990     50.366870000000006     48.779100000000000
H      50.456900000000005     48.163960000000003     46.764099999999999
H      45.969099999999997     48.519040000000004     50.227499999999999
H      48.449999999999989     45.382990000000007     46.935899999999997
H      47.681699999999992     51.281810000000007     47.020499999999998
H      49.509999999999998     50.262540000000001     45.772500000000001
H      45.543099999999995     45.960990000000010     49.843100000000000
H      47.206099999999992     44.718189999999993     48.180399999999999
