25

C      49.522899999999993     46.623699999999999     46.190059999999988
C      48.774400000000000     45.566699999999997     45.476559999999992
C      48.756999999999998     47.311700000000002     48.342444000000000
C      48.751299999999993     48.439499999999995     49.288730000000001
C      48.748299999999993     45.851600000000005     48.580427000000000
C      49.012099999999997     47.927000000000007     50.545529999999999
C      49.060399999999994     47.783299999999997     46.987060000000000
C      48.780499999999996     49.882500000000007     49.355890000000002
C      49.100199999999994     45.581000000000003     49.920130000000000
C      49.288499999999999     46.619200000000006     50.907310000000010
C      46.461799999999997     50.524600000000007     48.244100000000003
C      47.725099999999998     50.684300000000007     48.529337000000012
H      48.678599999999996     48.799099999999996     46.563459999999992
H      50.352499999999999     47.321700000000007     45.707160000000002
H      48.787799999999997     45.727400000000003     44.081359999999989
H      47.866399999999999     46.061499999999995     45.546459999999996
H      49.096499999999999     44.388800000000003     45.544460000000001
H      48.766699999999993     45.151300000000006     47.778052500000001
H      49.076199999999993     48.411599999999993     51.400340000000000
H      46.103099999999998     51.504700000000000     47.801761799999994
H      49.538699999999999     50.469899999999996     49.927770000000010
H      49.570999999999998     44.470700000000008     50.091239999999999
H      49.611699999999992     46.364699999999999     51.918640000000011
H      45.647500000000001     49.792099999999991     48.425912000000011
H      48.111899999999999     51.611199999999997     48.345873000000012
