18

C      47.640549999999990     48.321024999999992     47.084099999999992
C      47.637249999999995     48.738024999999993     48.511500000000005
C      48.338149999999985     49.264524999999992     46.439799999999998
C      48.399849999999986     49.696715900000001     49.314600000000006
C      47.145749999999992     47.029024999999990     46.498700000000007
C      46.958849999999998     47.745524999999986     49.271099999999997
C      49.237349999999992     50.058509999999998     47.178699999999999
C      49.582250000000002     50.124566000000002     48.622499999999995
C      46.068649999999991     46.404224999999997     47.230799999999995
C      45.947549999999993     46.962724999999992     48.536600000000000
H      48.305449999999993     49.451924999999989     45.438200000000002
H      47.966149999999999     50.284503000000001     50.150299999999994
H      47.306950000000001     46.720124999999996     45.444700000000005
H      46.794449999999998     47.800624999999997     50.561799999999998
H      49.729749999999996     50.657875000000004     46.384599999999999
H      50.495249999999999     50.453893000000008     49.110999999999997
H      45.662049999999994     45.342124999999996     46.904500000000006
H      45.504750000000001     46.139624999999995     49.009300000000003
