18

C      47.419199999999989     47.362449999999995     47.877019999999995
C      48.253900000000002     48.717549999999996     47.700980000000001
C      46.270099999999999     47.548050000000003     48.655169999999998
C      47.797200000000004     49.934050000000006     48.265970000000010
C      47.874499999999998     46.206450000000004     47.095960000000005
C      49.345699999999994     48.517550000000000     46.836580000000005
C      46.012900000000002     48.657350000000001     49.474679999999999
C      46.760499999999993     49.864850000000004     49.250630000000001
C      49.183800000000005     46.108550000000001     46.457270000000001
C      49.649299999999997     47.354350000000004     46.003330000000005
H      45.787499999999994     46.529650000000004     48.653250000000000
H      48.555000000000007     50.812149999999995     48.326689999999999
H      47.478899999999996     45.255450000000003     46.773240000000001
H      50.105199999999996     49.157150000000001     46.946110000000004
H      45.205799999999996     48.583850000000005     50.158130000000000
H      46.552099999999996     50.859649999999995     49.419000000000011
H      49.309300000000007     45.140350000000005     46.067309999999999
H      50.794200000000004     47.533149999999999     45.841870000000000
