18

C      47.419629999999984     47.832999999999998     47.784235000000002
C      48.863329999999998     48.347999999999999     47.770135000000010
C      47.331929999999993     47.213700000000003     46.530835000000010
C      49.842396999999998     48.546199999999999     46.743935000000008
C      46.491629999999994     48.156099999999995     48.814635000000010
C      49.102729999999987     49.306799999999996     48.848035000000010
C      48.509929999999990     46.872200000000007     45.744534999999999
C      49.846826000000000     47.575699999999998     45.903235000000009
C      47.329529999999998     48.432999999999993     49.992784000000015
C      48.428129999999989     49.343100000000007     50.162810000000015
H      46.402029999999989     47.121600000000001     45.929235000000006
H      50.683370000000004     49.204300000000003     46.836435000000009
H      45.316629999999996     47.975799999999992     48.839935000000011
H      49.971877999999997     50.037400000000005     49.115234999999998
H      48.382729999999988     45.962599999999995     45.168235000000010
H      50.413969999999999     47.372500000000002     44.970534999999998
H      46.880229999999990     48.462299999999999     51.029465000000002
H      48.686529999999998     49.973699999999994     50.966895000000015
