39

C      45.641149999999989     50.144999999999989     43.879949999999987
C      48.070449999999994     47.463899999999995     49.079250000000002
C      48.892250000000004     46.391900000000000     48.523849999999996
C      46.502250000000004     49.611499999999999     46.756450000000001
C      47.187449999999998     47.782399999999996     48.021950000000004
C      48.824150000000003     46.145099999999999     47.092349999999996
C      46.642150000000001     48.802300000000002     45.599450000000004
C      46.391049999999993     49.047100000000000     48.092950000000002
C      47.140749999999997     47.547600000000003     45.570049999999995
C      47.616249999999994     46.980999999999995     46.827050000000000
C      48.422849999999997     48.420600000000000     50.214050000000000
C      49.624549999999999     47.845700000000001     50.758250000000004
C      50.144549999999995     46.557199999999995     50.650250000000000
C      49.594149999999999     45.687399999999997     49.658050000000003
C      48.071050000000000     49.763300000000001     50.427750000000003
C      49.105549999999994     50.401499999999999     51.282950000000000
C      49.871349999999993     49.626399999999997     52.213949999999997
C      49.882450000000006     48.317000000000000     52.116649999999993
C      49.391549999999995     44.979900000000001     46.361350000000002
C      46.073949999999996     49.833599999999997     49.290949999999995
C      47.422250000000005     50.782800000000002     49.500749999999996
C      45.717749999999995     49.015599999999999     44.258550000000000
H      45.638350000000003     50.901600000000002     44.513149999999996
H      45.172950000000000     49.934899999999999     42.891350000000003
H      46.029349999999994     50.640299999999996     46.538849999999996
H      50.659549999999996     46.399500000000003     51.412549999999996
H      49.690150000000003     44.454400000000000     49.723450000000000
H      49.424650000000000     51.317400000000006     50.918449999999993
H      50.426149999999993     47.756599999999999     52.800749999999994
H      49.211749999999995     45.029200000000003     45.127049999999997
H      46.134050000000002     49.106600000000000     50.238050000000001
H      47.186849999999993     46.645699999999998     44.859849999999994
H      45.340949999999999     50.575699999999998     49.090350000000001
H      47.095849999999999     52.021100000000004     50.201049999999995
H      48.008849999999995     50.872299999999996     48.522649999999999
H      45.596950000000000     48.160499999999999     43.394149999999996
H      50.679550000000006     51.336600000000004     53.108649999999997
O      50.036050000000003     43.978899999999996     46.578749999999999
O      50.827050000000000     50.395499999999998     52.870949999999993
