27

C      49.452949999999987     47.218299999999992     48.588549999999984
C      49.650449999999999     47.275400000000005     47.201149999999998
C      46.027849999999994     49.732399999999998     45.878450000000001
C      48.200449999999996     47.698899999999995     48.992449999999991
C      48.513849999999998     47.148799999999994     46.346649999999997
C      46.524149999999999     49.601399999999998     47.978349999999992
C      46.693049999999992     48.514299999999992     45.466749999999990
C      47.303649999999998     48.473699999999994     48.011249999999990
C      47.551849999999995     48.034099999999995     46.537649999999999
C      48.126550000000002     47.320300000000003     50.363849999999999
C      49.068450000000006     46.238199999999992     50.678150000000002
C      46.365850000000002     49.968499999999992     49.478749999999991
C      48.771849999999993     46.324100000000001     44.922550000000001
H      45.354949999999995     50.251899999999992     49.621150000000000
H      50.645050000000005     46.796999999999997     46.873049999999992
H      45.377950000000006     50.515799999999999     45.135249999999999
H      47.858049999999999     48.236899999999991     51.042949999999990
H      48.593849999999996     45.201200000000000     50.314149999999998
H      49.456349999999993     46.232900000000001     51.678350000000009
H      46.110449999999993     49.246099999999998     50.341849999999994
H      47.049249999999994     50.798800000000000     49.867949999999993
H      49.808150000000005     45.996499999999997     45.352750000000000
H      46.568850000000005     46.957300000000004     44.387349999999998
N      45.874350000000000     50.210599999999999     47.037849999999992
O      48.118950000000005     45.474499999999992     44.429249999999996
O      46.439550000000004     47.900300000000001     44.321649999999991
O      50.092449999999992     46.605800000000002     49.554949999999991
