18

C      48.437249999999999     47.240299999999991     48.211709999999989
C      47.483149999999995     48.366199999999999     47.960509999999999
C      49.025250000000000     46.940499999999993     46.873840000000001
C      46.967349999999996     48.774700000000003     46.608940000000004
C      49.420450000000002     47.503899999999994     49.201210000000003
C      46.680149999999998     48.830899999999993     49.075109999999995
C      48.282250000000005     46.972400000000000     45.588049999999996
C      47.679349999999999     48.264199999999995     45.517020000000002
C      48.805049999999994     48.398900000000005     50.082509999999999
C      47.416049999999998     48.980499999999999     50.201309999999992
H      50.006550000000004     46.494599999999998     46.937440000000002
H      46.358149999999995     49.755400000000002     46.501139999999999
H      50.468649999999997     47.236899999999999     49.034309999999998
H      45.531350000000003     49.289999999999999     49.148110000000003
H      48.967050000000000     46.244599999999998     44.977159999999998
H      47.137749999999997     48.872999999999998     44.771490000000000
H      49.662949999999995     48.854899999999994     50.584109999999995
H      46.879750000000001     49.273299999999999     51.228510000000000
