18

C      47.588499999999989     48.811850000000000     48.704045000000001
C      48.127899999999997     47.928449999999998     47.582765000000009
C      46.268000000000001     48.445750000000004     49.227775000000008
C      47.681500000000000     46.536550000000005     47.690315000000012
C      48.348100000000002     50.002350000000007     48.835335000000015
C      49.419399999999996     47.960149999999999     46.956734000000012
C      45.762299999999996     47.157749999999993     48.737785000000017
C      46.403599999999997     45.996949999999998     48.059605000000012
C      49.714500000000001     49.951250000000002     48.363455000000009
C      50.220900000000000     48.927250000000001     47.632515000000012
H      45.706000000000003     49.287049999999994     49.622835000000009
H      48.348799999999997     45.954149999999998     47.096183000000011
H      48.000299999999996     50.974050000000005     49.344595000000012
H      49.871099999999998     47.031149999999997     46.377164999999991
H      44.660600000000002     46.711050000000000     48.718555000000009
H      45.969400000000007     45.025949999999995     47.847555000000007
H      50.380800000000008     50.454949999999997     49.100774999999999
H      51.339399999999998     48.905749999999998     47.502365000000012
