18

C      47.452999999999989     47.908949999999990     48.130084999999994
C      48.817599999999999     47.764749999999999     48.250794999999997
C      46.934799999999996     49.224850000000004     47.698104999999998
C      49.763999999999996     48.905350000000006     47.956074999999998
C      46.418899999999994     46.880749999999999     48.265325000000004
C      49.566700000000012     46.590350000000001     48.326724999999996
C      47.823900000000009     50.259149999999998     47.682424999999995
C      49.254099999999994     50.111749999999994     47.962594999999993
C      47.039000000000001     45.738750000000003     48.603335000000001
C      48.488500000000002     45.611550000000001     48.590215000000001
H      45.736199999999997     49.559750000000001     47.396664999999999
H      50.726500000000001     48.737549999999992     48.406544999999994
H      45.273499999999999     46.943350000000002     48.208734999999990
H      50.677199999999999     46.424050000000001     47.875334999999993
H      47.524700000000010     51.258249999999997     47.532825000000003
H      49.809100000000001     50.998650000000005     48.000995000000003
H      46.506199999999993     44.836050000000000     48.506604999999993
H      49.349000000000004     44.741750000000003     48.568004999999999
