71

C      48.249649999999988     50.333299999999994     46.133974999999985
C      47.879050000000007     50.629300000000008     47.424475000000001
C      49.069350000000000     43.580100000000009     47.628275000000002
C      48.131850000000000     49.128400000000006     45.499574999999993
C      47.339150000000004     49.304600000000001     48.313874999999996
C      48.084850000000003     44.082900000000002     46.847674999999995
C      49.530850000000001     44.577900000000007     48.714675000000000
C      47.794150000000002     46.577999999999996     45.939274999999995
C      48.234150000000000     47.049299999999995     48.778674999999993
C      47.959149999999994     48.006099999999996     46.383974999999992
C      47.800150000000002     48.057600000000001     47.890474999999995
C      48.308549999999997     45.584600000000002     46.886775000000000
C      48.898049999999998     45.912900000000000     48.227274999999992
C      48.310149999999993     51.691600000000001     45.293774999999997
C      48.390150000000006     52.920200000000001     45.951475000000002
C      48.306449999999998     52.969100000000005     47.377775000000000
C      47.896150000000006     51.797699999999999     47.959274999999991
C      48.051450000000003     51.526299999999999     43.899774999999991
C      48.006649999999993     52.689799999999998     43.124574999999993
C      48.393550000000005     53.967800000000004     43.776974999999993
C      48.582849999999993     54.201299999999996     45.151875000000004
C      47.754249999999999     50.297300000000000     43.260175000000004
C      47.802250000000001     49.064399999999999     44.001175000000003
C      46.728949999999998     47.857700000000001     43.976375000000004
C      47.093850000000003     46.449000000000005     44.579975000000005
C      46.730350000000001     49.274200000000000     49.511074999999991
C      46.158050000000003     51.918100000000003     49.584774999999993
C      47.177850000000007     43.251500000000000     46.034274999999994
C      47.326049999999995     43.277899999999995     44.529174999999995
C      47.794049999999999     55.338600000000007     41.433774999999997
C      47.828450000000004     43.360800000000005     52.472890000000007
C      48.448650000000001     42.420300000000005     51.530774999999991
C      48.179950000000005     44.771400000000007     52.217593000000008
C      49.046950000000010     42.835600000000007     50.302274999999995
C      47.481750000000005     43.121299999999998     53.845075000000008
C      48.902349999999998     41.222900000000003     52.284749000000005
C      48.481150000000000     45.298300000000005     51.031374999999997
C      48.865350000000007     44.238099999999996     50.049174999999991
C      47.607749999999996     41.793500000000002     54.380255000000005
C      48.333849999999998     40.858799999999995     53.634115000000008
H      49.299549999999996     42.550300000000000     47.597274999999996
H      50.614850000000004     44.864200000000004     48.664574999999999
H      48.257050000000007     47.302399999999999     49.847574999999992
H      48.489949999999993     54.096100000000000     47.792275000000004
H      48.850549999999998     55.128800000000005     45.605074999999999
H      47.660950000000000     50.452700000000000     42.120774999999995
H      45.827749999999995     48.395699999999998     44.201574999999991
H      46.581950000000006     48.043500000000002     42.767174999999995
H      46.028450000000007     46.122400000000006     44.577874999999992
H      47.653949999999995     45.817399999999999     43.881074999999996
H      46.649349999999998     50.144799999999996     50.122874999999993
H      46.119950000000003     48.352100000000000     49.988174999999998
H      45.385149999999996     51.565500000000007     48.792374999999993
H      45.789950000000005     52.229999999999997     50.515074999999996
H      48.341750000000005     43.673200000000001     44.038875000000004
H      46.952050000000000     42.360400000000006     43.983374999999995
H      46.681049999999999     44.148500000000006     43.902874999999995
H      48.223749999999995     54.444899999999997     40.873975000000002
H      46.731549999999999     54.915500000000002     41.242975000000001
H      48.176349999999999     56.136400000000002     40.659875000000000
H      48.283150000000006     45.607400000000005     53.132104999999996
H      49.682249999999996     42.014699999999998     49.845675000000000
H      47.248850000000004     43.853200000000008     54.653684999999996
H      49.901849999999996     40.749400000000001     51.875074999999995
H      48.680250000000001     46.375099999999996     51.392074999999991
H      47.323650000000001     41.382600000000004     55.340125000000000
H      48.541449999999998     39.863599999999998     54.142785000000003
N      47.336050000000000     52.069600000000001     49.307474999999997
O      46.522450000000006     42.484600000000007     46.666474999999991
O      48.187749999999994     55.055299999999995     43.124574999999993
O      47.452349999999996     52.593300000000006     42.052575000000004
