51

C      47.873829999999991     41.323244999999986     49.127849999999995
C      47.643529999999998     47.683464999999998     48.010449999999999
C      46.315929999999994     48.309164999999993     48.200349999999993
C      49.806030000000007     51.998964999999998     46.823050000000002
C      48.574230000000000     52.646365000000003     46.765549999999998
C      48.868129999999994     48.264965000000004     47.534050000000001
C      46.073130000000006     49.707165000000003     47.788549999999994
C      49.860330000000005     50.638765000000006     47.060849999999995
C      47.570930000000004     51.739665000000002     47.149650000000001
C      48.731729999999999     49.687965000000005     47.331749999999992
C      47.466930000000005     50.342765000000000     47.431649999999998
C      47.716329999999999     46.314565000000002     48.492849999999997
C      46.737330000000000     45.597864999999999     49.269349999999996
C      45.469229999999996     46.353965000000002     49.693849999999991
C      45.287030000000001     47.436665000000005     48.732250000000001
C      50.951140000000009     52.967565000000008     46.527449999999995
C      50.576729999999998     54.213265000000007     46.057049999999997
C      49.307029999999997     54.976465000000005     45.948050000000002
C      48.321929999999995     54.103465000000000     46.415249999999993
C      48.694230000000005     45.441865000000007     47.849049999999998
C      48.043729999999996     43.757495000000006     48.988149999999997
C      46.949529999999996     44.188215000000000     49.603450000000002
C      49.623329999999996     46.079864999999998     47.054749999999991
C      49.971930000000000     47.484165000000004     47.089949999999995
C      51.101292999999998     48.355765000000005     46.760449999999999
C      50.978368000000017     49.803965000000005     46.593249999999991
C      52.255530000000007     52.332364999999996     46.293249999999993
C      52.233510000000010     50.848264999999998     46.366250000000001
C      44.833730000000003     50.200864999999993     47.563650000000003
C      43.694329999999994     49.188365000000005     47.488149999999997
C      43.922830000000005     47.933464999999998     48.380249999999997
H      47.013030000000001     41.219044999999994     48.493549999999992
H      48.313530000000000     40.359634999999997     49.641449999999999
H      46.714929999999995     52.373765000000006     47.026350000000001
H      44.659729999999996     46.128365000000002     50.609349999999999
H      51.759351000000009     54.529764999999998     45.937649999999998
H      48.528829999999999     55.640365000000003     45.390650000000001
H      47.225930000000005     54.380965000000003     46.203550000000000
H      46.223630000000000     43.566064999999995     49.952149999999996
H      50.544830000000005     45.518865000000005     46.518250000000002
H      52.128680000000017     48.127664999999993     45.884849999999993
H      53.156670000000005     52.863664999999997     45.897149999999989
H      52.889880000000005     50.417964999999995     45.512549999999997
H      53.046700000000008     50.621965000000003     47.271149999999999
H      44.773629999999997     50.996465000000001     46.802149999999990
H      42.843329999999995     48.925664999999995     46.777250000000002
H      42.919730000000001     49.568664999999996     48.139649999999996
H      43.291229999999999     48.056264999999996     49.259949999999996
H      43.310130000000001     47.014065000000002     47.996450000000003
N      48.893129999999999     44.117645000000010     48.156749999999995
O      48.010030000000000     42.478925000000004     49.825749999999992
