6

C      47.528100000000002     47.712149999999994     47.797049999999992
C      48.935200000000009     47.789850000000001     48.036749999999998
H      46.626400000000004     47.230650000000004     48.320749999999990
H      49.373599999999996     47.302050000000001     48.976950000000002
H      47.381500000000003     48.769349999999996     47.532550000000001
H      49.226800000000011     47.420549999999999     47.023049999999998
