6

C      48.754734999999997     47.854849999999992     48.167699999999996
C      47.468195000000001     47.952150000000003     47.762799999999999
H      49.073325000000004     47.274549999999998     48.882400000000004
H      49.240434999999998     48.858350000000002     47.899900000000002
H      46.759565000000002     47.115549999999999     47.941500000000005
H      47.192995000000003     48.884450000000001     47.117599999999996
