39

C      47.262749999999997     48.133099999999985     48.273999999999987
C      48.399850000000001     47.888999999999996     47.237599999999993
C      46.588749999999997     51.255499999999998     45.139599999999994
C      46.185450000000003     49.119399999999999     48.094600000000007
C      48.105950000000000     47.858800000000002     45.825200000000002
C      45.702050000000000     50.763000000000005     46.103900000000003
C      47.497650000000000     50.163899999999998     44.842000000000006
C      46.224650000000004     49.561700000000002     46.665299999999995
C      47.318850000000005     49.107900000000001     45.822499999999998
C      46.925449999999998     47.297200000000004     49.313200000000002
C      47.858449999999998     46.197599999999994     49.715100000000000
C      48.975149999999999     46.041100000000000     48.772100000000002
C      49.289349999999992     46.784099999999995     47.561200000000007
C      45.773250000000004     47.636399999999995     50.174600000000005
C      45.329750000000004     46.969300000000004     51.314000000000000
C      46.310949999999998     46.042000000000002     51.607099999999996
C      47.427149999999990     45.637599999999992     50.960199999999993
C      44.965949999999999     49.296099999999996     48.863300000000002
C      50.634550000000004     44.617599999999996     48.263399999999997
C      51.010849999999998     45.453400000000002     47.182600000000001
C      48.618650000000009     47.235399999999998     44.492399999999996
C      48.520950000000006     44.821200000000005     51.676800000000007
C      48.502050000000004     49.912599999999998     43.974200000000003
H      44.817950000000003     51.492600000000010     46.438300000000005
H      46.500550000000004     52.088300000000004     44.544999999999995
H      46.265349999999998     45.187600000000003     52.478699999999996
H      44.009349999999998     49.806100000000001     48.442500000000003
H      51.249950000000005     43.911699999999996     48.748200000000004
H      51.990650000000002     45.204899999999995     46.772500000000001
H      48.499250000000011     47.700500000000005     43.278299999999994
H      49.352150000000002     44.109099999999998     51.142000000000003
H      48.320450000000001     50.632300000000001     43.202900000000007
H      49.307349999999992     48.964000000000013     43.883100000000006
H      44.498550000000002     47.462999999999994     52.026299999999999
N      44.742649999999998     48.509500000000003     49.985999999999997
N      49.825750000000006     45.098900000000000     49.164499999999997
N      50.265449999999994     46.490200000000002     46.798099999999998
O      48.349049999999998     46.078099999999992     44.252900000000004
O      48.920949999999998     44.879899999999992     52.797099999999993
