18

C      47.389299999999992     48.615399999999994     47.702349999999988
C      48.329400000000000     47.602599999999995     48.164949999999990
C      47.003700000000002     49.621499999999997     48.544550000000001
C      48.935499999999998     47.809699999999992     49.504549999999995
C      46.734400000000001     48.803600000000003     46.509149999999998
C      48.526099999999992     46.371699999999990     47.484749999999998
C      47.335799999999999     49.514200000000002     49.855449999999998
C      48.300699999999999     48.554699999999997     50.426349999999999
C      47.332799999999999     47.854699999999994     45.742149999999995
C      48.206600000000002     46.822400000000002     46.214149999999997
H      46.371800000000000     50.475700000000003     47.869549999999990
H      49.789400000000008     47.187399999999997     49.801850000000002
H      46.210599999999992     49.778700000000001     46.072749999999999
H      49.355300000000007     45.524299999999997     47.690449999999998
H      46.802000000000000     50.097699999999989     50.511150000000001
H      48.675999999999995     48.754599999999996     51.312449999999998
H      47.269100000000002     47.636699999999990     44.687550000000002
H      48.407699999999998     46.562500000000000     45.242350000000002
