9

C      47.443949999999980     49.245199999999997     47.696199999999997
C      48.235049999999987     46.664300000000004     47.589500000000001
C      48.430749999999989     48.041200000000003     47.464100000000002
H      47.214649999999992     49.612900000000003     48.810500000000005
H      46.482450000000000     49.217500000000001     47.189499999999995
H      47.603849999999994     50.107099999999996     47.201499999999996
H      48.912749999999988     45.892900000000004     47.356600000000000
H      49.517550000000000     48.621500000000005     47.402600000000007
H      47.338349999999991     46.349800000000002     48.165499999999994
