31

C      47.935949999999998     46.879579999999990     49.187820499999987
C      47.087350000000001     47.473920000000000     48.186420499999990
C      51.574650000000005     49.806699999999999     46.821820499999994
C      50.591350000000006     50.317069999999994     46.012120499999988
C      49.414850000000001     47.242750000000001     49.095820499999995
C      47.596050000000005     48.674560000000007     47.458220499999989
C      51.250850000000000     49.015509999999999     47.900720499999998
C      49.254249999999999     49.993069999999996     46.314020499999991
C      49.939949999999996     48.309530000000002     48.188120499999989
C      48.973650000000006     48.934069999999998     47.397720499999998
C      47.872349999999997     45.976790000000001     50.341620499999998
C      46.481049999999996     45.518859999999997     50.338320499999988
C      45.527649999999994     46.300820000000002     49.804620499999992
C      45.733249999999998     47.322510000000001     48.785920499999996
C      49.126050000000006     46.043520000000001     51.013520499999991
C      44.043149999999997     46.102260000000001     50.137820499999997
C      50.198250000000002     46.704450000000001     50.261720499999988
C      44.606849999999994     47.788710000000002     48.016520499999992
H      52.671949999999995     49.848459999999996     46.269420499999988
H      48.541550000000001     50.537410000000001     45.709620499999993
H      46.037850000000006     44.862000000000002     51.157320499999990
H      49.287949999999995     45.471339999999998     51.979179500000008
H      44.412350000000004     47.525089999999999     47.000520500000000
H      50.606849999999994     50.889910000000008     44.020820499999992
H      51.165549999999996     46.572899999999997     50.628720499999993
H      43.328050000000005     46.966149999999992     50.251420499999988
H      44.275350000000003     48.862600000000008     48.411520499999988
O      43.524249999999995     45.093710000000002     50.249120499999997
O      52.185149999999993     48.603810000000003     48.572820499999999
O      46.964449999999999     48.961829999999999     46.353220499999999
O      50.989649999999997     51.137999999999998     44.818220499999988
