22

C      45.392400000000002     47.331149999999987     48.771399999999986
C      49.393000000000001     47.999349999999993     49.498500000000000
C      48.625399999999999     49.009249999999994     49.040799999999997
C      48.812600000000003     46.757949999999994     49.838699999999996
C      47.109800000000007     48.797550000000001     48.983299999999993
C      50.931300000000007     48.182350000000000     49.329799999999999
C      49.263000000000005     50.161549999999991     48.463299999999997
C      47.559600000000003     46.488349999999997     49.124000000000002
C      46.632900000000006     47.597649999999994     48.942500000000003
C      48.213999999999999     49.261249999999990     46.144200000000005
C      48.822400000000002     49.910849999999996     47.240000000000002
H      44.491799999999998     47.997850000000000     48.537100000000002
H      45.186999999999998     46.307350000000000     49.348700000000001
H      47.562399999999997     49.962949999999992     45.462300000000006
H      49.496000000000009     46.064749999999997     50.537699999999994
H      46.584400000000002     49.740250000000003     48.903399999999998
H      51.318200000000004     48.578649999999996     48.335600000000007
H      51.271900000000002     48.936449999999994     49.972199999999994
H      47.600499999999997     45.480249999999998     48.907800000000002
H      47.754700000000000     48.338849999999994     46.143800000000006
H      50.350200000000001     50.519750000000002     48.417499999999997
H      51.508200000000002     47.408050000000003     49.791699999999999
