18

C      48.313679999999977     48.177149999999983     48.378599999999992
C      47.522669999999998     47.606549999999991     47.327199999999998
C      48.604088999999981     49.509649999999993     48.110400000000006
C      46.784970000000001     48.286349999999992     46.343800000000002
C      49.176589999999983     47.463649999999994     49.402899999999995
C      47.287769999999981     46.189449999999994     47.378599999999999
C      48.125310999999982     50.391449999999985     47.058100000000003
C      47.081469999999975     49.722949999999997     46.407699999999998
C      48.845589999999980     46.070549999999997     49.474700000000006
C      47.901758999999984     45.575249999999997     48.405799999999992
H      49.953729999999986     47.923449999999995     49.970500000000001
H      49.284609999999979     49.776249999999983     48.946400000000004
H      46.046270000000014     47.897049999999993     45.581699999999998
H      46.633569999999985     45.395349999999993     46.824400000000004
H      48.533790999999987     51.433950000000003     47.109900000000003
H      46.740369999999992     50.414149999999999     45.569899999999997
H      48.921239999999983     45.296549999999996     50.430100000000003
H      47.360869999999998     44.566049999999997     48.386900000000004
