5

C      47.851699999999994     48.037849999999992     47.763999999999996
H      48.020899999999997     47.813550000000006     48.775500000000001
H      47.197299999999998     47.116749999999996     47.770299999999999
H      47.095799999999997     48.883250000000004     47.455400000000004
H      48.904200000000003     47.624049999999997     47.224499999999999
