18

C      48.673484999999999     47.953399999999995     48.247599999999991
C      47.362265000000008     47.903199999999998     47.834599999999995
C      49.187354999999997     48.768100000000004     49.267399999999988
C      46.520885000000007     48.733000000000004     48.601399999999998
C      49.585565000000003     47.096499999999992     47.454400000000000
C      46.979465000000005     47.183399999999992     46.673999999999999
C      48.356665000000007     49.606138000000001     49.959300000000006
C      46.993175000000008     49.670121000000002     49.568700000000000
C      49.261485000000008     46.423299999999998     46.323999999999998
C      47.860934999999998     46.378100000000003     45.978299999999997
H      50.248575000000002     48.450199999999995     49.427999999999990
H      45.369595000000004     48.880200000000002     48.200800000000001
H      50.630404999999996     47.220299999999995     47.901800000000001
H      46.099195000000009     47.381299999999996     46.181599999999996
H      48.815705000000008     50.381900000000002     50.727300000000007
H      46.139004999999997     50.112060000000000     50.080499999999994
H      50.044565000000006     45.848100000000002     45.796900000000001
H      47.445335000000000     45.618099999999998     45.272699999999993
