5

C      47.957849999999986     48.007449999999992     47.710299999999982
H      47.354050000000001     48.054650000000009     48.826599999999999
H      48.923950000000005     47.665450000000007     47.872500000000002
H      47.206649999999996     48.845050000000001     47.173400000000001
H      47.076049999999995     47.154949999999999     47.702799999999996
