6

C      48.010899999999992     47.376849999999997     48.048549999999999
C      48.223399999999998     48.738150000000005     47.927450000000000
H      47.085200000000000     47.152050000000003     48.854050000000001
H      47.883799999999994     49.375249999999994     48.653649999999999
H      48.330999999999989     46.538550000000001     47.145949999999999
H      48.914800000000000     49.461449999999999     47.265350000000005
