18

C      48.662049999999994     46.855399999999989     48.120449999999991
C      47.957350000000005     47.380800000000001     46.887550000000005
C      47.807749999999999     46.402999999999999     49.294650000000004
C      46.974249999999998     46.555599999999991     46.311149999999998
C      49.576150000000013     47.760399999999997     48.718149999999994
C      48.208650000000006     48.737999999999992     46.470550000000003
C      46.712649999999996     46.045399999999994     48.750950000000003
C      46.185050000000004     45.889800000000001     47.352750000000000
C      50.032750000000007     48.970899999999993     48.068150000000003
C      49.382350000000002     49.412199999999991     46.864450000000005
H      48.124449999999996     46.625599999999999     50.520650000000003
H      46.518550000000005     46.941699999999990     45.479349999999997
H      50.204949999999997     47.556800000000003     49.581650000000010
H      47.677850000000007     49.289899999999996     45.699349999999995
H      45.737650000000002     45.822299999999991     49.320549999999997
H      45.138549999999995     45.521099999999997     47.012150000000005
H      50.861450000000005     49.660899999999991     48.238649999999993
H      49.502150000000000     50.478900000000003     46.422150000000002
