36

C      47.575249999999997     52.783250000000002     45.319249999999990
C      47.507449999999992     47.883050000000011     48.796249999999993
C      46.263549999999995     48.457149999999999     49.200049999999990
C      47.434950000000001     51.956750000000000     46.266049999999993
C      48.521649999999994     48.742950000000008     47.985949999999995
C      45.892949999999999     49.685650000000010     48.715449999999990
C      48.449150000000003     51.116250000000008     46.670549999999992
C      46.245249999999999     51.582149999999999     46.891149999999996
C      47.964249999999993     50.005250000000004     47.415549999999996
C      46.512249999999995     50.375450000000001     47.622950000000003
C      47.590649999999997     46.430350000000004     48.835250000000002
C      47.025149999999996     45.719850000000008     49.904249999999990
C      45.820349999999991     46.248750000000001     50.362949999999998
C      45.316749999999999     47.481150000000000     49.751049999999992
C      48.940249999999992     46.105550000000008     48.383349999999993
C      49.152249999999995     44.715450000000004     48.565149999999996
C      48.458849999999998     43.814850000000007     49.686849999999993
C      47.647349999999989     44.452250000000006     50.461749999999995
C      49.696050000000000     48.142850000000010     47.507949999999994
C      50.417949999999990     44.237050000000011     48.300349999999995
C      50.848949999999988     42.983150000000009     48.790250000000000
H      48.259050000000002     52.526750000000007     44.602750000000000
H      46.902349999999998     53.633550000000000     45.115150000000000
H      51.491849999999999     45.653649999999999     47.098549999999996
H      44.837750000000000     49.938550000000006     48.948349999999991
H      49.721149999999994     51.329750000000004     46.536149999999992
H      45.221549999999993     52.080750000000009     46.882749999999994
H      45.310050000000004     45.909350000000003     51.397250000000000
H      44.412350000000004     47.924450000000007     49.954349999999991
H      48.860249999999994     42.792349999999999     50.028250000000000
H      47.284449999999993     43.869750000000010     51.317049999999995
H      50.576049999999995     48.558050000000009     47.119149999999991
H      51.003349999999998     42.577250000000006     49.886749999999992
H      51.587649999999996     42.366450000000000     48.145049999999998
N      49.801349999999999     46.814350000000005     47.719049999999996
O      51.253450000000001     44.642650000000003     47.121949999999998
