18

C      48.412449999999993     47.942499999999995     48.132299999999987
C      47.433349999999997     47.153700000000001     47.358999999999995
C      48.325949999999999     47.707900000000002     49.535800000000002
C      46.969950000000004     45.830800000000004     47.695599999999999
C      49.066650000000003     49.152799999999999     47.666999999999994
C      47.420150000000000     47.621099999999998     46.077099999999994
C      47.561550000000004     46.624900000000004     50.109599999999993
C      46.820650000000001     45.903399999999998     49.092299999999994
C      48.631450000000001     49.929000000000009     46.598299999999995
C      47.934750000000001     48.964100000000002     45.710999999999999
H      46.029850000000003     45.193700000000000     49.393400000000007
H      46.241050000000001     45.305599999999998     46.934599999999996
H      49.970149999999997     49.584899999999998     48.049199999999999
H      46.729549999999996     46.964800000000004     45.471599999999995
H      48.859850000000002     48.442599999999999     50.304399999999994
H      47.689749999999997     46.416499999999999     51.256800000000005
H      49.250450000000001     50.806300000000000     46.221599999999995
H      48.123950000000001     49.476199999999999     44.743199999999995
