8

C      48.501649999999991     48.334149999999994     47.984899999999989
C      47.337350000000001     47.296150000000004     47.888599999999997
H      49.705750000000002     48.217850000000006     48.266300000000001
H      48.272250000000000     48.636350000000000     49.039100000000005
H      46.294249999999998     47.782250000000005     48.066800000000001
H      47.002049999999997     47.190950000000001     46.960899999999995
H      48.117249999999999     49.188150000000000     47.290999999999997
H      47.829949999999997     46.811850000000000     48.694600000000008
