41

C      48.084999999999994     49.036799999999985     49.183849999999993
C      48.195399999999999     50.413799999999995     48.661349999999999
C      49.121100000000006     47.732799999999997     44.998649999999998
C      48.015800000000006     47.802199999999999     48.449750000000009
C      49.134599999999999     50.200400000000002     47.549750000000003
C      48.501500000000000     46.851500000000001     45.950950000000006
C      49.641100000000002     49.029700000000005     45.283550000000005
C      48.528300000000009     47.846599999999995     47.069250000000011
C      49.287200000000006     48.973600000000005     46.828250000000011
C      48.052399999999999     49.016999999999996     50.671150000000011
C      47.978299999999997     50.155000000000001     51.608750000000001
C      47.907900000000005     51.387400000000000     50.961350000000010
C      48.208800000000004     51.589399999999998     49.573650000000001
C      47.684600000000010     47.824500000000000     51.304850000000002
C      47.757600000000004     47.774799999999999     52.634950000000003
C      48.036600000000000     48.973399999999998     53.365549999999999
C      47.229500000000009     46.450000000000003     50.478950000000012
C      47.243900000000004     46.677999999999997     49.138550000000009
C      48.132200000000005     45.647300000000001     45.376950000000008
C      48.596400000000010     44.382999999999996     46.222549999999998
C      46.432600000000001     44.737499999999997     42.131450000000001
C      47.592900000000007     45.428799999999995     44.002650000000003
H      49.489300000000007     47.200199999999995     44.118650000000002
H      49.306900000000006     51.157000000000011     47.171750000000003
H      50.234299999999998     49.687100000000001     44.675550000000001
H      47.695600000000006     52.353700000000003     51.636949999999999
H      48.648900000000005     52.508200000000002     49.165950000000009
H      48.319600000000001     48.521299999999997     54.439250000000001
H      46.300400000000003     45.986800000000002     51.053150000000002
H      47.765500000000010     46.112099999999998     54.115450000000010
H      49.614200000000004     44.501099999999994     46.647950000000009
H      47.931400000000004     44.260400000000004     47.067850000000007
H      48.711300000000001     43.491799999999998     45.535550000000001
H      45.765700000000002     44.137699999999995     41.560749999999999
H      47.377600000000008     44.794700000000006     41.623350000000002
H      46.202000000000005     45.869399999999999     42.040450000000007
H      47.787200000000006     46.562500000000000     43.464350000000010
H      46.778600000000004     45.870099999999994     48.454550000000012
N      48.127200000000009     50.187699999999992     52.950350000000014
N      46.937600000000010     44.452900000000000     43.418350000000004
O      47.581400000000009     46.649900000000002     53.424250000000015
