18

C      48.879700000000000     47.798349999999985     48.367399999999989
C      48.012400000000007     47.893450000000001     47.128699999999995
C      48.909100000000002     46.761650000000003     49.317600000000013
C      47.956399999999995     46.587450000000004     46.663300000000007
C      49.105499999999999     49.051650000000009     48.932400000000001
C      47.332400000000000     49.124449999999996     46.899299999999997
C      48.658399999999993     45.380250000000004     48.996800000000007
C      48.408999999999999     45.503749999999997     47.522099999999995
C      49.195200000000007     50.209350000000001     48.262400000000000
C      48.294000000000004     50.272950000000009     47.071200000000005
H      49.422599999999996     46.907650000000004     50.347099999999998
H      47.409100000000002     46.437049999999999     45.652900000000002
H      49.446999999999996     49.062649999999991     49.907300000000006
H      46.414099999999998     49.315950000000001     46.391599999999997
H      49.101700000000001     44.615150000000000     49.585099999999997
H      48.723000000000006     44.647149999999996     46.827100000000002
H      49.585900000000002     51.064050000000009     48.620300000000015
H      47.792899999999996     51.384850000000000     46.983500000000006
