18

C      47.719399999999986     47.084849999999989     48.101249999999993
C      48.711600000000004     47.926049999999996     48.897850000000005
C      46.309100000000001     47.440649999999998     48.002750000000006
C      48.108099999999993     48.737549999999992     49.886350000000007
C      47.856899999999996     46.062249999999999     47.186350000000004
C      49.970600000000005     47.388749999999995     48.744850000000000
C      45.990899999999996     48.582949999999990     48.822350000000000
C      46.768799999999999     49.398249999999997     49.659149999999997
C      49.169499999999999     46.103449999999995     46.514350000000007
C      50.138899999999992     46.704849999999993     47.481250000000003
H      45.687300000000000     47.381649999999986     47.215950000000007
H      48.627700000000004     49.244949999999996     50.507750000000001
H      46.980499999999992     45.626449999999998     46.505650000000003
H      50.774599999999992     47.439749999999997     49.533550000000005
H      44.822699999999998     48.836149999999996     48.603350000000006
H      46.308799999999998     50.373550000000002     50.026949999999999
H      49.270600000000002     45.877649999999996     45.492249999999999
H      51.177300000000002     46.278449999999999     47.766249999999999
