18

C      47.828604999999982     48.671799999999990     48.699750000000002
C      48.382004999999985     47.691100000000006     47.730550000000008
C      48.315454999999979     49.978000000000009     48.932150000000007
C      49.677044999999985     48.034599999999998     47.285750000000007
C      46.439264999999999     48.303100000000001     48.896550000000005
C      47.998144999999987     46.423400000000001     47.357050000000008
C      49.584494999999997     50.226399999999998     48.421050000000008
C      50.199264999999990     49.315600000000003     47.468950000000007
C      45.842464999999990     47.088999999999999     48.308750000000003
C      46.562364999999993     46.099500000000006     47.637250000000009
H      47.822804999999988     50.578700000000012     49.533149999999992
H      50.067874999999987     47.346800000000002     46.466850000000008
H      45.730565000000006     49.092399999999998     49.403950000000002
H      48.710544999999989     45.843100000000007     46.961850000000005
H      50.305784999999979     51.064700000000002     48.847650000000002
H      50.952634999999994     49.561099999999996     46.853550000000006
H      45.047365000000006     46.731600000000000     48.825450000000004
H      46.227064999999989     44.935299999999998     47.634950000000003
