51

C      48.168750000000003     50.597699999999996     42.680349999999990
C      47.204250000000009     47.304800000000000     50.319450000000003
C      46.839050000000007     48.487600000000000     51.053250000000006
C      46.425950000000007     50.000399999999999     46.012850000000014
C      45.513849999999998     50.737600000000000     46.940349999999995
C      47.582749999999997     47.703100000000006     48.942250000000001
C      46.058650000000007     49.583100000000002     50.635050000000007
C      46.945850000000000     48.937200000000004     46.815849999999998
C      45.389850000000003     50.717700000000008     48.371250000000003
C      46.925750000000001     48.759399999999999     48.246549999999999
C      46.047850000000004     49.592100000000002     49.084149999999994
C      46.638050000000000     46.074900000000000     50.829350000000005
C      46.471849999999996     45.806400000000011     52.222949999999997
C      46.554049999999997     46.969300000000004     53.091350000000006
C      46.755850000000002     48.279899999999998     52.660050000000012
C      46.580550000000009     51.510700000000000     44.395550000000000
C      45.631850000000007     52.199700000000007     45.003749999999997
C      44.897050000000000     51.870800000000003     46.215050000000005
C      48.392150000000008     46.802500000000009     48.160449999999997
C      48.586750000000002     47.171300000000002     46.792350000000013
C      46.941650000000003     45.011499999999998     49.624549999999999
C      49.506549999999997     46.024200000000008     46.217550000000003
C      50.058349999999997     46.490900000000011     45.186549999999997
C      47.298850000000009     51.582300000000004     43.168949999999995
C      47.654750000000000     44.010100000000008     49.799450000000007
C      47.867350000000009     48.153900000000007     46.041950000000000
C      46.795350000000006     49.587800000000001     53.410250000000005
C      46.474650000000004     45.173900000000003     48.529750000000007
C      50.915250000000007     47.016900000000007     44.422150000000002
H      48.442749999999997     50.762200000000007     41.746949999999998
H      48.620250000000006     50.009200000000007     43.561549999999997
H      46.155850000000008     50.656400000000005     51.305350000000004
H      45.082950000000004     51.652000000000001     48.847350000000006
H      46.468150000000001     44.874600000000001     52.773349999999994
H      46.837850000000010     46.714800000000011     54.253050000000002
H      44.929850000000009     52.858300000000000     44.697249999999997
H      44.053350000000002     52.423800000000000     46.755849999999995
H      49.035249999999998     46.099800000000002     48.582750000000004
H      50.461350000000003     46.695300000000003     43.422650000000004
H      51.946649999999998     47.197200000000009     44.230450000000005
H      46.973149999999997     52.177700000000002     42.409549999999996
H      49.635650000000005     44.324100000000001     45.549150000000012
H      48.285649999999997     43.511400000000009     49.233950000000007
H      47.332550000000005     43.141700000000000     50.514849999999996
H      48.013750000000009     47.863200000000006     44.934349999999995
H      45.934850000000004     50.140600000000006     53.700250000000011
H      47.759949999999996     50.165500000000009     53.768150000000006
H      46.532050000000005     44.671100000000010     47.614350000000002
H      45.347150000000006     45.648800000000008     48.449550000000002
N      47.072650000000003     50.426200000000009     44.966650000000001
O      49.451349999999998     44.690800000000010     46.379850000000005
