18

C      48.530754999999999     47.632149999999996     48.624849999999995
C      47.482855000000001     48.269449999999992     47.671650000000000
C      48.139955000000000     47.291749999999993     50.028150000000004
C      46.126015000000010     48.647449999999992     48.003450000000001
C      49.948854999999995     47.615049999999997     48.496449999999996
C      47.970955000000004     48.260249999999985     46.399650000000001
C      46.738525000000010     47.564849999999993     50.114950000000000
C      45.675404999999998     48.213650000000001     49.340649999999997
C      50.254255000000001     48.012850000000000     47.150250000000000
C      49.309354999999996     48.333150000000003     46.016249999999999
H      48.844855000000010     46.683750000000003     50.614449999999998
H      45.575335000000010     49.316249999999997     47.446149999999996
H      50.819554999999994     47.308750000000003     49.210749999999997
H      47.245705000000001     48.344250000000002     45.558450000000001
H      46.324535000000012     47.278649999999999     51.080649999999999
H      44.709145000000007     48.350249999999988     49.601750000000003
H      51.290854999999993     48.141649999999998     46.734249999999996
H      49.619655000000009     48.337750000000000     44.919350000000001
