18

C      47.605999999999995     47.932449999999989     46.993999999999986
C      47.785500000000006     47.972749999999991     48.527600000000000
C      46.288800000000002     48.305149999999998     46.687800000000003
C      46.754300000000001     48.528649999999999     49.353000000000002
C      48.660699999999999     47.071950000000001     46.392900000000004
C      49.020199999999996     48.050649999999990     49.162299999999995
C      45.359800000000007     48.921250000000001     47.347199999999994
C      45.639900000000004     49.092950000000002     48.737100000000005
C      49.941300000000005     47.285150000000002     47.093200000000003
C      50.174900000000001     47.820149999999998     48.367399999999996
H      46.011600000000001     48.292450000000002     45.520800000000001
H      46.877700000000004     48.533250000000010     50.479199999999999
H      48.317200000000007     46.196649999999991     46.837499999999999
H      49.034600000000005     48.238950000000003     50.283799999999992
H      44.660400000000003     49.670349999999999     46.840299999999992
H      44.775300000000001     49.803350000000009     49.151299999999999
H      50.661800000000007     47.104149999999990     46.133299999999998
H      51.339599999999997     47.852249999999998     48.898900000000005
