47

C      49.292149999999992     49.025649999999992     49.112799999999993
C      48.046349999999990     48.428150000000002     49.338899999999995
C      49.114750000000001     45.833249999999992     45.474499999999992
C      48.622949999999989     44.775349999999996     46.360799999999998
C      49.962750000000000     48.244249999999994     48.076399999999992
C      48.037749999999988     46.882249999999999     49.655699999999996
C      47.990249999999989     45.172649999999997     47.601900000000001
C      49.581549999999993     46.933949999999996     47.626499999999993
C      48.573549999999997     46.089950000000002     48.513700000000000
C      45.949549999999988     49.320549999999997     48.307199999999995
C      45.476249999999993     50.662949999999995     48.656399999999991
C      45.838249999999988     51.270049999999998     49.860199999999992
C      46.392150000000001     50.142150000000001     50.562299999999993
C      50.606449999999995     49.314849999999993     47.367300000000000
C      46.156949999999995     49.215249999999997     45.837499999999991
C      45.885449999999992     48.764649999999996     46.966799999999992
C      47.381649999999993     50.191949999999991     45.734099999999998
C      51.346249999999998     50.616550000000004     48.002799999999993
C      45.468649999999997     47.352949999999993     46.993600000000001
C      50.764150000000001     49.219749999999991     45.997299999999996
C      50.033149999999992     48.112849999999995     45.282199999999989
C      46.784849999999992     49.154249999999990     49.521599999999992
C      49.899249999999995     45.749849999999995     48.735699999999994
H      49.358449999999991     45.627949999999998     44.467999999999989
H      47.008849999999995     46.487549999999999     49.782699999999991
H      46.905349999999999     45.041049999999998     47.757700000000000
H      44.957749999999990     51.350849999999994     47.945200000000000
H      45.574950000000001     52.315049999999999     50.218099999999993
H      46.437449999999998     50.027749999999997     51.611699999999999
H      45.468649999999997     49.209449999999990     44.864899999999992
H      47.634049999999988     50.405749999999998     46.796399999999991
H      51.734849999999994     51.128749999999997     47.181199999999990
H      51.820049999999995     50.911349999999999     48.945200000000000
H      46.423049999999989     47.057249999999996     46.223799999999997
H      44.179950000000005     47.065550000000002     46.939299999999989
H      45.881649999999993     47.005649999999996     48.033999999999992
H      50.967249999999993     49.770849999999996     45.196699999999993
H      49.198449999999994     48.615049999999997     45.288599999999988
H      50.563849999999988     47.758749999999992     44.388300000000001
H      48.707949999999997     46.515649999999994     50.536999999999992
H      49.557449999999989     49.973549999999989     49.572499999999991
H      50.605549999999994     46.416550000000001     49.318799999999996
H      48.856749999999991     43.684950000000001     46.321999999999989
H      50.403749999999988     44.761349999999993     48.466299999999990
H      50.442250000000001     51.605549999999994     48.210499999999996
N      49.568549999999988     46.952449999999999     46.077199999999991
O      47.592549999999989     51.148150000000001     44.918499999999995
