38

C      47.486299999999986     49.023799999999994     48.053349999999995
C      47.104799999999997     47.574000000000005     48.213949999999997
C      44.126599999999996     48.966300000000004     45.131050000000002
C      46.826200000000000     49.826799999999999     47.211449999999999
C      46.030200000000008     47.075400000000002     47.456549999999993
C      44.896799999999999     49.998600000000003     45.595849999999999
C      45.713499999999996     49.311200000000007     46.595050000000001
C      45.222899999999996     47.831100000000006     46.527450000000002
C      48.697299999999998     49.496400000000001     48.765450000000001
C      49.343699999999998     48.699400000000004     49.765549999999990
C      48.689400000000006     47.393800000000006     50.118649999999988
C      47.763000000000005     46.723300000000002     49.222049999999996
C      49.716099999999997     50.133599999999994     47.985649999999993
C      51.072600000000008     50.425600000000003     48.412350000000004
C      51.665800000000004     49.604200000000013     49.334950000000006
C      50.790599999999998     48.815200000000004     49.904749999999993
C      47.438199999999995     51.289600000000000     46.917850000000001
C      49.220300000000009     51.082000000000008     46.958249999999992
C      45.417400000000001     45.749900000000004     48.101450000000000
C      47.382300000000001     44.760200000000005     50.901150000000001
C      47.748199999999997     45.349000000000004     49.615149999999986
H      43.340599999999995     49.143800000000006     44.420550000000006
H      44.934799999999996     51.087899999999998     45.086349999999996
H      49.381699999999995     46.706900000000005     50.753649999999993
H      51.837500000000006     51.165900000000015     47.846750000000000
H      52.659400000000005     49.611200000000004     49.547650000000004
H      51.408200000000008     48.184400000000004     50.572350000000000
H      47.395200000000003     51.982700000000001     47.863649999999993
H      46.989500000000007     51.713299999999997     46.073849999999993
H      49.678200000000004     52.113999999999997     47.091750000000005
H      49.500699999999995     50.455400000000004     45.992249999999999
H      44.525599999999997     45.322800000000008     47.467849999999999
H      45.209299999999999     46.395800000000001     49.035949999999985
H      47.928700000000006     43.886000000000003     51.035049999999998
H      48.063199999999995     44.527500000000003     48.903149999999997
H      46.664600000000007     45.263900000000007     51.579449999999994
H      46.366200000000006     45.325400000000002     48.194949999999992
N      44.162500000000009     47.790400000000005     45.739549999999994
