18

C      48.672699999999992     48.674734999999998     48.569949999999992
C      48.796800000000005     48.044695000000004     47.263249999999999
C      49.219999999999999     47.953784999999996     49.696250000000006
C      49.146799999999999     46.585894999999994     47.161349999999999
C      47.620800000000003     49.665424999999999     48.647350000000003
C      48.112300000000005     48.813305000000000     46.238150000000005
C      49.777900000000002     46.660195000000002     49.658050000000003
C      49.691900000000004     46.119704999999996     48.324050000000000
C      46.778500000000008     50.276884999999993     47.748950000000008
C      47.436000000000007     50.013894999999991     46.493049999999997
H      49.388700000000000     48.282655000000005     50.767949999999999
H      48.808500000000009     45.755144999999999     46.425650000000005
H      47.267899999999997     49.431274999999999     49.615050000000011
H      48.221400000000003     48.508965000000003     45.232050000000001
H      50.057400000000001     46.087864999999994     50.659649999999999
H      49.969999999999999     45.169515000000004     48.293050000000008
H      45.942599999999999     50.830484999999996     47.895250000000004
H      47.187700000000007     50.495684999999995     45.539550000000006
