44

C      48.077449999999985     46.119349999999997     49.677899999999994
C      46.827449999999999     46.747050000000002     49.478999999999999
C      50.154250000000005     50.286749999999998     47.711200000000005
C      48.819350000000000     50.773349999999994     47.221800000000002
C      49.243250000000003     46.950749999999999     49.365300000000005
C      46.672049999999999     48.186549999999997     49.370800000000003
C      50.208750000000009     49.106650000000002     48.295599999999993
C      47.709450000000004     49.974050000000005     47.801900000000003
C      49.219949999999997     48.261349999999993     48.715999999999994
C      47.867649999999998     48.919049999999999     48.679000000000002
C      48.100949999999997     44.727450000000005     50.076899999999995
C      46.932350000000000     43.910349999999994     50.318999999999988
C      45.625850000000000     44.632149999999996     50.096000000000004
C      45.628850000000000     45.984449999999995     49.910599999999988
C      51.274349999999998     51.120649999999998     47.294499999999999
C      51.107450000000000     52.557450000000003     47.186499999999995
C      49.779650000000004     52.977850000000004     47.048400000000001
C      48.687750000000008     52.149249999999995     46.756199999999993
C      49.331550000000007     43.971750000000000     49.798400000000001
C      49.414450000000002     42.648650000000004     50.228399999999993
C      47.176250000000010     42.588049999999996     50.838300000000004
C      50.386650000000003     46.059049999999999     49.133099999999999
C      50.547750000000008     44.734549999999999     49.462199999999996
C      45.314750000000004     48.783450000000002     49.536400000000000
C      44.224750000000000     47.949349999999995     49.410300000000007
C      44.369150000000005     46.564949999999996     49.478300000000004
C      51.766750000000002     48.703549999999993     48.730199999999996
H      46.691150000000007     50.067049999999995     47.437799999999996
H      44.736949999999993     44.195350000000005     50.074799999999996
H      51.976750000000010     50.499250000000004     46.676800000000000
H      52.142250000000004     53.246150000000000     47.398099999999999
H      49.815049999999999     54.162149999999997     46.935299999999998
H      50.167550000000006     41.837850000000003     50.028000000000006
H      46.597350000000006     41.914050000000003     51.561899999999994
H      51.368150000000000     46.487849999999995     48.702500000000001
H      51.495450000000005     44.202449999999999     49.038300000000007
H      44.928049999999999     49.803749999999994     49.552800000000005
H      43.440349999999995     48.245850000000004     48.755899999999997
H      43.506550000000004     46.015649999999994     49.231399999999994
H      51.934350000000009     48.354149999999990     49.811799999999991
H      47.857349999999997     52.355849999999990     44.438100000000006
N      48.426349999999999     42.005150000000000     50.865600000000001
O      52.559650000000005     48.190650000000005     48.002399999999994
S      47.235250000000008     52.392550000000000     45.708600000000004
