18

C      48.642619999999994     48.247649999999993     48.455394999999996
C      47.624820000000000     47.544450000000005     47.685995000000005
C      49.739319999999992     48.947350000000007     47.753195000000005
C      47.924120000000002     47.061250000000008     46.391054999999994
C      48.453320000000005     48.554450000000010     49.843194999999994
C      46.198750000000004     47.408549999999998     48.128695000000008
C      50.086020000000005     48.404150000000008     46.567435000000003
C      49.180319999999995     47.468450000000011     45.930135000000007
C      47.100020000000001     48.371850000000002     50.282394999999994
C      46.097160000000002     47.800850000000004     49.426694999999995
H      50.509419999999992     49.486049999999999     48.318995000000001
H      47.096119999999999     46.513950000000001     45.680385000000001
H      49.318820000000002     49.297050000000006     50.029195000000001
H      45.387039999999999     47.085349999999998     47.505195000000001
H      51.028819999999996     48.792949999999998     46.170964999999995
H      49.140820000000005     47.097050000000003     44.970105000000004
H      46.890619999999998     49.259350000000005     51.029894999999996
H      44.971180000000004     47.738350000000004     49.689794999999989
