18

C      48.569649999999996     48.033499999999989     48.195649999999993
C      47.243150000000007     47.438699999999997     47.906649999999999
C      49.485050000000008     47.126300000000001     48.708449999999999
C      46.561850000000000     46.184899999999999     48.218350000000001
C      49.004449999999999     49.530999999999992     48.398550000000000
C      46.546050000000001     48.478600000000000     47.331549999999993
C      48.939450000000001     45.776799999999994     48.852949999999993
C      47.626449999999998     45.342399999999998     48.779949999999999
C      48.212150000000001     50.376700000000000     47.648849999999996
C      47.016650000000006     49.783799999999999     46.991349999999997
H      50.530549999999998     47.109600000000000     48.984650000000002
H      45.609550000000006     45.820700000000002     48.088750000000005
H      49.645450000000004     49.879499999999993     49.092950000000002
H      45.469450000000002     48.186700000000002     47.099050000000005
H      49.584150000000001     44.889799999999994     49.238649999999993
H      47.394050000000000     44.409800000000004     49.369450000000001
H      47.899550000000005     51.590199999999996     47.769649999999999
H      46.349049999999998     50.608800000000002     46.630549999999999
