18

C      48.563799999999993     48.798199999999994     47.636499999999991
C      47.858300000000000     47.498200000000004     47.481200000000001
C      47.577300000000001     49.764400000000002     47.445300000000003
C      46.510500000000000     47.030499999999996     47.296400000000006
C      49.816400000000002     48.890899999999995     48.316299999999998
C      48.512599999999999     46.340899999999998     47.972700000000003
C      46.214300000000001     49.586199999999998     46.794799999999995
C      45.676600000000001     48.266900000000000     47.034700000000001
C      50.328000000000003     47.637099999999997     48.747399999999999
C      49.960800000000006     46.225099999999991     48.172200000000004
H      48.009900000000002     50.765599999999999     47.684600000000003
H      46.170400000000001     45.991499999999995     47.514300000000006
H      49.897500000000001     49.883900000000004     48.751199999999997
H      47.731500000000004     45.646599999999999     48.388400000000004
H      45.450800000000001     50.458899999999993     46.856499999999997
H      44.735500000000002     47.942299999999996     46.540199999999999
H      51.264499999999998     47.603599999999993     49.459800000000001
H      50.548299999999998     45.234400000000001     48.329499999999996
