6

C      48.049300000000002     48.596299999999999     47.817099999999996
C      48.201200000000000     47.419300000000000     47.934299999999993
H      48.337199999999996     49.179899999999996     48.537199999999999
H      47.662800000000004     49.089999999999996     46.975300000000004
H      48.082099999999997     46.820100000000004     47.000900000000001
H      48.263500000000008     47.044400000000003     49.024699999999996
