18

C      48.182426999999997     47.389819999999986     48.755749999999985
C      48.141926999999995     48.716839999999991     48.197850000000003
C      49.071226999999993     46.413609999999991     48.227549999999994
C      49.080826999999999     48.876940000000005     47.204349999999991
C      46.922527000000002     47.102719999999991     49.576049999999995
C      47.271526999999992     49.718239999999994     48.450850000000003
C      50.092226999999994     46.623939999999990     47.257449999999992
C      50.031327000000005     47.927639999999997     46.659549999999996
C      45.955226999999994     48.085439999999991     49.765349999999998
C      46.112826999999996     49.421839999999989     49.228650000000002
H      48.637626999999995     45.420059999999992     48.518950000000004
H      49.132227000000000     49.801339999999996     46.494550000000004
H      45.072126999999995     47.855639999999994     50.397149999999996
H      47.065726999999995     50.579940000000008     47.767150000000001
H      51.046473000000006     46.137990000000002     46.699749999999995
H      50.483152000000004     48.043740000000000     45.602850000000004
H      46.902327000000000     46.199599999999990     49.887950000000004
H      44.953526999999994     50.042940000000002     49.150649999999999
