18

C      47.980000000000004     47.219199999999987     48.152069999999995
C      47.859000000000002     48.602999999999994     48.352080000000001
C      46.763300000000008     46.386899999999997     48.208530000000010
C      46.741300000000003     49.381800000000013     47.868780000000001
C      49.195600000000006     46.459500000000006     48.221249999999998
C      49.147900000000000     49.433100000000010     48.590900000000005
C      45.855800000000009     47.278000000000006     47.576800000000006
C      45.699700000000000     48.654399999999995     47.338990000000010
C      50.134999999999998     47.296200000000013     48.903410000000008
C      50.205300000000001     48.733800000000002     49.032800000000009
H      46.363500000000009     45.412499999999994     48.496440000000007
H      46.711400000000005     50.587500000000006     47.640929999999997
H      49.515900000000009     45.462099999999992     47.634960000000007
H      49.680300000000010     50.311800000000005     48.318030000000007
H      44.841000000000001     46.829399999999993     47.157719999999998
H      44.995300000000007     49.211200000000005     46.646490000000000
H      51.109500000000004     46.899900000000002     49.353510000000000
H      51.158999999999999     49.096000000000004     48.906509999999997
