5

C      48.168399999999991     47.907259999999994     48.042699999999996
H      47.166100000000000     48.007249999999999     47.818100000000001
H      48.425600000000003     48.967480000000002     48.544200000000004
H      48.833900000000000     47.428150000000002     47.225899999999996
H      48.112200000000001     47.032519999999998     48.774100000000004
