5

C      48.197949999999992     48.192854999999994     47.930499999999988
H      47.236849999999997     48.147844999999997     47.438199999999995
H      48.256849999999993     48.912534999999998     48.864300000000000
H      48.387149999999998     47.087465000000002     48.047799999999995
H      48.763150000000003     48.723234999999995     47.135700000000000
