18

C      48.463299999999997     47.245139999999992     47.852019999999996
C      47.591900000000003     48.452840000000002     47.953080000000000
C      49.368400000000008     47.085139999999996     46.783470000000008
C      47.994700000000002     49.380640000000007     46.873630000000006
C      48.443300000000001     46.485729999999997     49.077700000000007
C      46.653900000000000     48.723340000000000     49.064999999999998
C      49.362800000000000     47.926840000000006     45.646039999999999
C      48.667300000000012     49.083940000000005     45.634680000000003
C      47.841000000000001     46.781540000000000     50.410349999999994
C      46.849000000000004     47.867740000000005     50.265609999999995
H      50.059300000000007     46.109310000000001     46.566460000000006
H      47.569900000000004     50.606040000000000     47.050889999999995
H      48.669400000000003     45.393960000000000     49.088080000000005
H      45.927300000000002     49.160840000000000     48.490700000000004
H      50.072699999999998     47.775739999999992     44.860950000000003
H      48.878199999999993     49.789040000000007     44.883319999999998
H      48.748000000000005     46.289040000000000     50.871949999999998
H      46.085200000000000     48.258440000000000     51.139049999999997
