62

C      52.540149999999997     50.981150000000000     50.436799999999991
C      51.263350000000003     51.175949999999993     49.631800000000005
C      52.475450000000002     51.865150000000007     51.669000000000004
C      50.035650000000004     51.580450000000006     50.247400000000006
C      53.790150000000004     50.409950000000002     49.966900000000003
C      51.509050000000002     50.932549999999999     48.314900000000002
C      51.259850000000007     52.320450000000001     52.276699999999998
C      50.128150000000005     52.378949999999996     51.474100000000000
C      53.961150000000004     50.250250000000001     48.647200000000005
C      52.849750000000007     50.785350000000001     47.917400000000008
C      46.726850000000006     46.903050000000000     46.954500000000003
C      47.357350000000004     45.880550000000007     47.720900000000007
C      48.921450000000000     50.783849999999994     49.562900000000006
C      47.013650000000005     48.414449999999995     47.068700000000000
C      48.562350000000002     46.173750000000005     48.552700000000009
C      48.105750000000008     50.348049999999994     48.405400000000007
C      48.856050000000003     49.676150000000000     50.408400000000007
C      47.768950000000004     48.951349999999998     48.244400000000006
C      47.909250000000007     48.724849999999996     49.580900000000007
C      45.953150000000001     46.521049999999995     45.897399999999998
C      45.747550000000004     45.168550000000003     45.425600000000003
C      47.035950000000007     44.608150000000002     47.194200000000002
C      45.180050000000001     47.587449999999997     45.234999999999999
C      44.066350000000007     47.196549999999995     44.286600000000000
C      43.960450000000002     45.825849999999996     43.900800000000004
C      44.826250000000009     44.835249999999995     44.351100000000002
C      45.581050000000005     48.955149999999996     45.103300000000004
C      46.670950000000005     49.387549999999997     46.046200000000006
C      47.080249999999999     50.734749999999998     46.047400000000003
C      47.796950000000002     51.111950000000000     47.285400000000003
C      43.109950000000005     48.283449999999995     43.721200000000003
C      41.601050000000008     48.028950000000002     43.454100000000004
C      48.342649999999999     52.511950000000006     47.464700000000001
C      46.798450000000003     51.584949999999999     44.794100000000000
H      54.877350000000000     49.893350000000005     48.487800000000000
H      53.478950000000005     51.986550000000001     52.211199999999998
H      54.684750000000001     49.997250000000001     50.632700000000007
H      50.735250000000001     51.208450000000006     47.609100000000005
H      50.994450000000008     52.412650000000006     53.364399999999996
H      49.127250000000004     52.656250000000007     51.784100000000002
H      52.734650000000002     51.035549999999994     46.898000000000003
H      49.020350000000001     45.375049999999995     48.967000000000006
H      49.688549999999999     49.365850000000002     51.092100000000009
H      48.707250000000002     47.314050000000002     48.758200000000009
H      47.707350000000005     47.565149999999996     49.904400000000003
H      47.588750000000005     44.052550000000004     47.896800000000006
H      45.280450000000002     49.893449999999994     44.642800000000001
H      41.447150000000001     47.336149999999996     42.647100000000002
H      41.122650000000000     47.600349999999999     44.404800000000002
H      41.316950000000006     48.922949999999993     43.069400000000002
H      42.823750000000004     44.742150000000002     42.710500000000003
H      49.415550000000003     52.517649999999996     46.967900000000007
H      47.535650000000004     52.934249999999999     46.603800000000000
H      48.235950000000003     52.576850000000000     48.556199999999997
H      47.265850000000007     52.600349999999999     44.517200000000003
H      47.115349999999999     51.100150000000006     43.788300000000000
H      45.762850000000007     52.147250000000007     44.924800000000005
H      45.679450000000003     43.065750000000001     43.858200000000004
N      46.296450000000000     44.263749999999995     46.123700000000007
O      43.514650000000003     49.365450000000003     43.684000000000005
O      44.831350000000008     43.755249999999997     43.601700000000001
O      43.552250000000008     45.604450000000007     42.635600000000004
