34

C      45.784599999999998     45.585449999999994     48.817024999999994
C      47.033400000000000     46.418549999999996     48.875825000000006
C      45.647399999999998     44.378550000000004     49.563024999999996
C      48.182000000000009     45.969449999999995     49.466724999999997
C      44.690199999999997     46.231449999999995     48.115124999999999
C      46.946300000000001     47.631449999999987     48.137425000000000
C      46.930199999999992     43.754049999999992     49.985025000000000
C      48.097500000000004     44.660449999999997     49.987524999999998
C      44.503799999999998     47.526149999999987     47.778424999999999
C      45.718299999999999     48.314849999999993     47.709425000000003
C      49.916900000000005     49.979450000000000     47.480525000000000
C      49.580199999999998     51.001049999999992     48.404425000000003
C      50.945299999999996     50.258650000000003     46.398305000000001
C      50.213200000000001     52.234049999999996     48.285525000000000
C      49.215299999999999     48.731750000000005     47.396825000000000
C      48.597000000000001     50.571149999999989     49.411524999999997
C      51.764000000000003     51.368449999999996     46.353904999999997
C      51.189600000000006     52.333349999999996     47.333224999999999
C      48.158800000000006     48.591350000000006     48.183225000000000
C      47.735300000000002     49.449650000000005     49.305624999999999
H      44.650700000000001     44.098349999999996     50.036924999999997
H      49.182600000000001     46.548349999999999     49.246524999999998
H      43.856299999999997     45.627349999999993     47.643625000000000
H      47.082000000000001     42.688450000000003     50.476124999999996
H      49.049399999999999     43.952150000000003     50.542825000000008
H      43.598999999999997     47.618349999999992     47.086424999999998
H      45.875899999999994     49.209149999999994     47.033625000000001
H      50.872599999999998     49.510049999999993     45.505665000000000
H      49.737900000000003     53.126849999999990     48.763725000000001
H      49.482500000000002     47.876350000000002     46.747025000000001
H      48.063299999999998     50.894649999999999     50.568825000000004
H      52.401000000000003     51.807549999999992     45.431174999999996
H      51.529600000000002     53.311549999999997     47.401724999999999
H      47.240200000000002     49.079750000000004     50.059325000000001
