18

C      47.566949999999984     48.100899999999996     47.217599999999997
C      48.238149999999997     47.734399999999994     48.598299999999995
C      48.351849999999985     48.381900000000002     46.107700000000001
C      49.537149999999983     47.305999999999997     48.616600000000005
C      46.184149999999995     48.406899999999993     47.316100000000006
C      47.478849999999994     47.510400000000004     49.783400000000000
C      49.717649999999999     47.970299999999995     46.270400000000002
C      50.121449999999982     47.139399999999995     47.329900000000002
C      45.638149999999996     48.457300000000004     48.593900000000005
C      46.141149999999996     47.797399999999996     49.881000000000000
H      47.986750000000001     48.976500000000001     45.255400000000002
H      49.992550000000001     46.911900000000003     49.437700000000007
H      45.585049999999995     49.038300000000007     46.653200000000005
H      48.075350000000000     47.250799999999998     50.613000000000000
H      50.416149999999995     48.363000000000000     45.609200000000001
H      51.401650000000004     47.179599999999994     47.475700000000003
H      44.598349999999996     49.088099999999997     48.463000000000008
H      45.402249999999995     47.496499999999997     50.744599999999998
