10

C      48.659449999999993     47.381074999999996     48.846949999999993
C      48.157150000000001     48.026024999999990     47.569150000000000
C      46.885750000000002     47.803124999999994     47.303750000000001
H      47.935350000000000     46.929765000000003     49.705249999999999
H      48.682050000000004     47.506434999999996     46.645550000000000
H      48.400049999999993     49.203125000000000     47.694350000000000
H      46.626850000000005     47.577325000000002     46.294750000000001
H      46.212050000000005     48.847124999999991     47.242149999999995
H      46.455950000000001     46.796875000000000     48.018250000000002
O      49.787949999999995     46.985464999999991     49.071050000000000
