18

C      47.543654999999987     48.848399999999998     48.844949999999990
C      47.481385000000003     48.166900000000005     47.523249999999997
C      46.634505000000004     48.104199999999999     49.676549999999999
C      47.599145000000007     46.689600000000006     47.617049999999999
C      48.625665000000012     49.672800000000002     49.269750000000002
C      48.179475000000011     48.757600000000004     46.374149999999993
C      46.262884999999997     46.767800000000001     49.700149999999994
C      47.065995000000001     46.134599999999999     48.681249999999999
C      49.246975000000006     50.270800000000001     48.202149999999996
C      49.027045000000001     49.814300000000010     46.869549999999997
H      46.088944999999995     48.314100000000003     50.685050000000004
H      48.289564999999996     45.905500000000011     46.976049999999994
H      48.939805000000007     49.984200000000008     50.203549999999993
H      48.442125000000004     48.630400000000002     45.314949999999996
H      45.777874999999995     46.244000000000007     50.510749999999987
H      46.973195000000004     45.090100000000000     49.030149999999992
H      50.222125000000005     50.909900000000000     48.423649999999995
H      49.604595000000003     50.451799999999999     46.207749999999997
