18

C      48.085300000000004     47.594549999999991     48.458050000000000
C      48.059899999999999     48.745849999999997     47.549018000000004
C      47.613000000000000     47.601750000000003     49.810940000000009
C      47.957899999999995     50.002549999999999     48.319710000000008
C      48.349899999999991     46.282449999999997     47.973470000000006
C      48.615799999999993     48.468449999999997     46.276660000000028
C      47.500500000000002     48.830649999999999     50.392070000000011
C      48.025499999999994     49.965350000000001     49.842990000000007
C      48.276200000000003     46.155549999999998     46.608160000000034
C      48.662399999999991     47.204749999999997     45.693560000000026
H      46.980400000000003     46.966949999999997     50.613870000000006
H      47.571399999999997     50.940150000000003     47.747140000000009
H      48.160699999999991     45.476550000000003     48.729469999999999
H      48.566499999999991     49.322049999999990     45.453960000000023
H      47.002700000000004     48.816450000000003     51.472240000000006
H      48.124399999999994     50.855649999999997     50.419510000000010
H      48.304599999999994     45.059849999999997     46.355460000000022
H      49.019599999999997     47.440950000000001     44.527759999999994
