9

C      48.527499999999989     48.822099999999992     46.848495999999983
C      48.493799999999993     48.373699999999999     48.161995999999995
C      47.296999999999997     47.864200000000011     48.986895999999994
H      49.572900000000004     48.630099999999999     46.248595999999999
H      47.546300000000002     49.218000000000004     46.736095999999996
H      47.206999999999994     46.781999999999996     48.918895999999997
H      49.114999999999995     48.884900000000002     49.019295999999990
H      48.040300000000002     47.574500000000000     49.751404000000001
H      46.427099999999996     48.433500000000009     48.979695999999997
