18

C      47.576749999999990     47.760799999999996     47.654129999999988
C      48.153550000000003     49.012500000000003     48.187799999999996
C      48.528250000000007     46.566099999999999     47.847519999999989
C      49.603050000000003     49.098100000000002     48.499429999999990
C      46.430149999999998     47.847099999999998     47.019009999999994
C      47.151649999999997     49.752000000000002     49.022379999999998
C      49.933349999999997     46.814000000000000     47.850079999999998
C      50.429150000000000     48.012200000000007     48.430980000000005
C      45.622650000000000     48.996000000000009     47.398080000000000
C      45.839149999999997     49.748600000000010     48.593179999999990
H      48.139249999999997     45.650700000000001     48.349819999999994
H      50.001649999999991     49.971600000000002     48.932549999999992
H      45.973750000000003     47.110100000000003     46.259119999999996
H      47.476450000000000     50.322800000000001     49.740880000000004
H      50.479050000000008     45.884599999999999     48.089990000000000
H      51.468049999999998     48.597999999999999     48.817899999999995
H      44.531950000000002     48.640799999999999     46.953809999999997
H      44.965350000000001     50.349299999999999     48.926369999999991
