18

C      47.869849999999985     48.170927500000005     47.342849999999999
C      47.528649999999999     48.186397499999998     48.784549999999996
C      49.133849999999988     48.145807500000004     46.834050000000005
C      48.567549999999990     48.629017500000003     49.711750000000009
C      46.884549999999997     47.640017499999999     46.414950000000005
C      46.474149999999995     47.523037500000001     49.518150000000006
C      50.230749999999993     48.299217500000012     47.763950000000008
C      49.957449999999994     48.592687500000011     49.180250000000001
C      45.866749999999996     47.059719500000000     47.000950000000003
C      45.595349999999996     47.107669500000000     48.447350000000000
H      49.389449999999989     47.910507500000008     45.772750000000002
H      48.549749999999996     49.541817499999993     50.378749999999997
H      47.105849999999997     47.732447500000006     45.382050000000007
H      46.343949999999992     47.441957500000001     50.617949999999993
H      51.215150000000001     48.362497500000003     46.950249999999997
H      50.894749999999995     48.334797500000008     49.773350000000008
H      45.002349999999993     46.762498500000007     46.271150000000006
H      44.784849999999999     46.458182500000007     48.942549999999997
