18

C      48.012649999999994     47.915999999999990     48.831659999999999
C      48.131750000000004     48.088300000000004     47.306690000000003
C      48.410350000000001     46.808400000000006     49.594750000000005
C      48.845350000000003     47.101200000000006     46.550210000000007
C      47.320850000000000     48.906199999999998     49.456069999999997
C      47.375350000000005     49.008700000000005     46.619910000000004
C      49.051849999999995     45.890500000000003     48.833079999999995
C      49.293950000000002     46.019899999999993     47.428179999999998
C      46.761850000000003     49.952399999999997     48.652109999999993
C      46.830350000000003     50.167999999999992     47.232330000000005
H      48.592449999999999     46.732799999999997     50.571330000000003
H      48.787249999999993     47.188699999999997     45.494969999999995
H      47.153650000000006     48.957700000000003     50.580569999999994
H      47.112050000000004     49.087099999999992     45.419430000000006
H      49.527650000000001     44.862399999999994     49.162719999999993
H      49.828949999999999     45.272800000000004     46.689180000000007
H      46.171050000000001     51.137600000000006     48.797020000000003
H      46.485150000000004     51.065600000000003     46.710319999999996
