5

C      48.152249999999995     48.043839999999989     47.822249999999983
H      48.056550000000001     48.797870000000003     48.616650000000000
H      48.877249999999997     48.725000000000009     47.333750000000002
H      48.301549999999999     47.202129999999997     48.666249999999998
H      47.122750000000003     47.777220000000000     47.362450000000003
