21

C      47.581370999999983     50.218189999999993     50.312049999999985
C      47.622212999999988     47.169589999999999     47.803249999999998
C      47.993315999999993     48.371769999999998     48.324349999999995
C      47.986639999999994     46.895979999999994     46.416349999999994
C      48.695809999999994     49.362819999999999     47.633749999999999
C      46.824349999999988     46.225819999999999     48.516749999999995
C      47.553804999999990     48.803159999999998     49.674249999999994
C      48.670259999999992     47.747129999999999     45.593849999999996
C      48.906339999999993     49.057579999999994     46.256149999999998
C      46.587949999999985     46.484549999999999     49.783049999999996
C      46.930850000000007     47.779370000000000     50.288349999999994
H      46.634549999999997     50.815770000000001     50.134949999999996
H      48.183859999999996     49.982889999999998     51.244549999999997
H      48.496759999999988     50.623359999999998     49.756949999999996
H      47.863904999999988     45.976790000000001     46.036249999999995
H      48.991469999999993     50.403650000000006     48.034749999999995
H      46.626249999999999     45.184229999999999     48.086749999999995
H      48.893649999999994     47.685719999999996     44.548849999999995
H      49.582949999999997     49.721629999999998     45.621849999999995
H      46.417050000000003     45.789690000000000     50.513449999999999
H      46.672849999999990     47.943939999999998     51.451150000000005
