5

C      48.254449999999991     48.057199999999995     47.949849999999998
H      48.159839999999996     47.081900000000005     47.393050000000002
H      48.633590000000005     48.664899999999989     48.892649999999996
H      48.440570000000001     48.918099999999995     47.107350000000004
H      47.366409999999995     48.432800000000000     48.751449999999998
