19

C      48.464300000000001     47.688099999999999     48.698675000000001
C      48.445000000000007     47.551100000000005     47.316474999999997
C      48.995400000000004     46.628399999999999     49.664547000000013
C      47.614800000000002     46.136900000000004     47.205174999999997
C      48.398700000000005     49.201000000000008     48.875475000000009
C      48.514200000000002     48.494799999999998     46.264475000000004
C      48.960599999999999     45.309300000000007     49.159360000000007
C      48.624000000000009     45.205300000000008     47.765775000000005
C      48.435299999999998     50.295400000000001     47.942475000000002
C      48.354600000000005     49.877100000000006     46.521174999999999
H      46.843699999999998     46.120800000000003     47.991875000000007
H      49.156300000000002     47.016900000000007     50.751225000000005
H      47.563100000000006     45.756300000000003     46.146974999999998
H      48.177800000000005     49.877799999999993     49.888575000000010
H      48.363000000000000     48.098400000000005     45.248774999999995
H      48.790700000000001     44.432000000000002     49.949175000000011
H      49.156100000000009     44.586400000000005     46.976675000000000
H      48.443500000000000     51.567999999999998     47.946174999999997
H      48.387200000000007     50.536400000000015     45.717775000000003
