18

C      48.518299999999989     47.337549999999993     48.434349999999995
C      48.118899999999996     48.640349999999998     48.237650000000002
C      48.138500000000008     46.610949999999995     49.588949999999997
C      47.468000000000004     49.249849999999988     49.384249999999994
C      49.156999999999996     46.809149999999995     47.280749999999998
C      48.147900000000007     49.338449999999987     47.011949999999999
C      46.948599999999999     47.014649999999996     50.226149999999990
C      46.789600000000007     48.458849999999991     50.398649999999989
C      49.393500000000003     47.508050000000004     46.038349999999994
C      48.672600000000003     48.691849999999995     45.891249999999999
H      48.468600000000009     45.608950000000000     49.421549999999996
H      47.064300000000003     50.391050000000000     49.528749999999988
H      49.202300000000008     45.672649999999997     47.291349999999994
H      47.782800000000009     50.293749999999996     46.982749999999996
H      46.289299999999997     46.429049999999997     50.628649999999993
H      46.053399999999996     48.921249999999993     51.170749999999998
H      49.946600000000004     46.953749999999999     45.138549999999995
H      48.741799999999998     49.000749999999989     44.829250000000002
