18

C      48.163789999999992     48.731149999999992     47.076049999999995
C      49.009590000000003     47.712750000000000     47.697649999999996
C      47.873290000000004     49.847250000000003     47.768249999999995
C      49.451490000000000     47.822749999999999     49.054550000000006
C      47.153410000000001     48.110550000000003     46.114450000000005
C      48.978890000000000     46.400750000000002     47.129649999999998
C      48.227589999999999     49.968649999999997     49.138949999999994
C      49.086590000000001     48.990549999999999     49.791349999999994
C      47.124090000000002     46.799250000000001     45.704250000000002
C      48.330390000000001     46.001050000000006     45.966750000000005
H      47.436390000000003     50.635949999999994     47.200849999999988
H      49.846589999999999     46.857849999999999     49.496350000000007
H      46.222130000000000     48.806550000000001     46.192650000000000
H      49.671689999999991     45.575950000000006     47.406250000000000
H      47.754790000000000     50.920050000000003     49.384450000000001
H      49.080890000000004     48.916449999999998     50.849149999999995
H      46.153410000000001     46.592550000000003     45.150850000000005
H      48.533490000000008     45.079949999999997     45.514849999999996
