18

C      48.112449999999995     48.387699999999995     47.451549999999997
C      48.097749999999998     47.478000000000002     48.511550000000007
C      48.842950000000009     49.468600000000002     47.841349999999998
C      49.004550000000002     47.422400000000003     49.600050000000003
C      47.315750000000001     48.397300000000001     46.223450000000007
C      46.885150000000003     46.580300000000001     48.401850000000003
C      49.990850000000002     49.359800000000000     48.685849999999995
C      49.892749999999999     48.393900000000009     49.737550000000006
C      46.337449999999997     47.400399999999998     46.101049999999994
C      46.101250000000000     46.654600000000002     47.286750000000005
H      48.822150000000001     49.972900000000003     46.899449999999995
H      49.057350000000007     46.674100000000003     50.597050000000003
H      47.387650000000001     49.206800000000008     45.490450000000003
H      46.487050000000004     46.440500000000000     49.338950000000004
H      50.591349999999998     50.159900000000000     49.077549999999995
H      50.447650000000003     48.633299999999998     50.734450000000002
H      45.656849999999999     47.378500000000003     45.265549999999998
H      45.408650000000002     45.840100000000000     46.898950000000006
