6

C      48.012749999999983     48.215115999999988     47.241849999999985
C      48.289649999999995     47.688675999999994     48.620649999999998
H      47.741649999999993     49.227676000000002     47.007450000000006
H      47.554549999999992     47.598673999999995     46.505449999999996
H      48.102450000000005     46.772323999999998     49.181849999999997
H      48.445450000000008     48.279955999999984     49.494550000000004
