18

C      47.617299999999993     47.237349999999992     48.684749999999994
C      48.396999999999991     48.274549999999998     47.945249999999994
C      46.343499999999992     47.589649999999999     49.092049999999993
C      48.226599999999991     49.559750000000001     48.449849999999991
C      48.242199999999997     45.952449999999999     48.660350000000001
C      49.584999999999994     47.895449999999997     47.190750000000001
C      45.965499999999992     48.928149999999995     48.989950000000000
C      46.939799999999991     49.910750000000000     48.870550000000001
C      49.646900000000002     45.870950000000001     48.248150000000003
C      50.272099999999995     46.797350000000002     47.362050000000004
H      45.541899999999998     46.598750000000003     49.594450000000002
H      48.753900000000002     50.477150000000002     48.206650000000003
H      47.939099999999996     44.991149999999998     49.069550000000000
H      50.025300000000001     48.449849999999991     46.405549999999998
H      44.969300000000004     49.043349999999997     49.293349999999997
H      46.845100000000002     51.078550000000000     48.857449999999993
H      49.942599999999999     44.921450000000000     48.089849999999991
H      51.030699999999996     46.563650000000003     46.583549999999995
