18

C      48.878499999999995     48.085499999999996     47.779199999999989
C      47.440500000000000     47.922000000000004     48.201500000000003
C      49.832999999999998     48.507899999999999     48.751200000000004
C      47.040000000000006     48.155600000000000     49.583700000000000
C      48.947299999999998     47.980000000000011     46.351799999999997
C      46.267200000000003     47.909400000000012     47.473900000000000
C      49.405400000000000     48.817000000000000     50.014900000000004
C      48.095900000000000     48.346200000000003     50.477100000000000
C      47.822900000000004     47.559900000000006     45.549700000000001
C      46.610799999999998     47.446400000000004     46.162199999999999
H      50.857100000000003     48.565700000000000     48.380899999999997
H      46.100300000000004     48.442500000000003     49.825099999999999
H      49.870699999999999     48.352700000000006     46.027299999999997
H      45.142899999999997     47.698600000000006     48.097200000000001
H      50.401100000000000     49.373100000000001     50.482700000000001
H      48.339200000000005     48.765500000000010     51.446800000000003
H      47.830500000000001     46.983200000000004     44.553199999999997
H      45.835499999999996     46.626899999999999     45.737600000000000
