18

C      47.530299999999990     47.800749999999994     47.432199999999995
C      48.415599999999998     48.969150000000006     48.011699999999998
C      47.934100000000001     46.845350000000003     46.518499999999996
C      49.534499999999994     49.225349999999999     47.164900000000003
C      46.385099999999994     47.745750000000001     48.213199999999993
C      48.023499999999999     49.664449999999995     49.274700000000003
C      49.219699999999996     46.934149999999995     45.827800000000003
C      49.907699999999991     48.290749999999996     46.275799999999997
C      46.020799999999994     48.757950000000001     49.174600000000005
C      46.745599999999996     49.681149999999995     49.853000000000002
H      47.673699999999997     45.799749999999996     46.619099999999996
H      50.493499999999997     49.742749999999994     47.449300000000001
H      45.530099999999997     47.309950000000001     47.861299999999993
H      48.775800000000004     50.200250000000004     49.782000000000004
H      49.832399999999993     46.369450000000001     45.253700000000002
H      50.902799999999999     48.515949999999997     45.690700000000000
H      45.097200000000001     48.329249999999995     49.455199999999998
H      46.592599999999997     50.199849999999991     50.746299999999998
