18

C      48.506899999999995     48.862349999999992     47.257649999999991
C      48.451700000000002     48.549550000000004     48.618750000000006
C      47.264400000000002     49.377450000000003     46.730049999999999
C      47.273400000000002     48.822849999999995     49.594549999999998
C      49.641900000000007     48.725450000000002     46.339649999999999
C      49.468899999999991     47.469949999999997     48.913150000000002
C      46.181300000000000     49.745849999999997     47.493049999999997
C      46.194099999999999     49.414250000000003     48.870949999999993
C      50.459800000000001     47.532849999999996     46.716549999999998
C      50.326899999999995     46.975949999999997     47.993650000000002
H      47.266199999999998     49.734649999999995     45.755649999999996
H      47.392099999999999     48.476250000000000     50.538449999999997
H      49.979100000000003     49.190649999999998     45.461550000000003
H      49.225999999999999     47.065049999999999     50.068950000000001
H      45.104500000000002     50.156050000000000     47.346150000000009
H      45.436000000000000     49.736550000000001     49.828749999999999
H      50.895499999999998     46.929249999999996     45.814949999999996
H      50.674700000000001     45.843950000000000     48.238650000000007
