6

C      47.403799999999990     48.029550000000000     48.308849999999993
C      48.618399999999987     47.695949999999996     47.795349999999999
H      47.270799999999987     49.198949999999996     48.349950000000000
H      46.706099999999999     47.335449999999994     48.564349999999997
H      48.985899999999994     48.578350000000000     47.435650000000003
H      49.293900000000001     46.801050000000004     47.680749999999996
