5

C      47.827749999999988     47.988899999999987     48.187149999999995
H      48.189449999999994     47.920699999999997     47.073149999999998
H      47.265850000000000     47.296300000000002     48.926850000000002
H      47.030850000000001     48.703699999999998     48.356650000000002
H      48.969149999999999     48.126599999999996     48.769950000000009
