18

C      47.995149999999995     48.725749999999991     48.666100000000000
C      48.014549999999993     47.555050000000001     47.822199999999995
C      46.919150000000002     48.861049999999999     49.438500000000005
C      47.020850000000003     46.499649999999995     47.602199999999996
C      49.167049999999996     49.600549999999991     48.478600000000000
C      49.145550000000007     47.344850000000001     46.922899999999998
C      45.788850000000004     48.093449999999997     49.034799999999990
C      45.882150000000003     46.844850000000001     48.337800000000001
C      50.088749999999997     49.206949999999999     47.590400000000002
C      50.275150000000004     48.072849999999995     46.649000000000001
H      46.417750000000005     49.856050000000003     49.921899999999994
H      46.933650000000000     45.530650000000001     46.988399999999999
H      49.484650000000009     50.469349999999999     48.991000000000000
H      51.094850000000001     47.794849999999997     46.141800000000003
H      44.905149999999999     48.721649999999997     49.534800000000004
H      45.014150000000001     46.258550000000000     48.566400000000002
H      50.935650000000003     49.748449999999998     47.307800000000000
H      49.214250000000000     46.577950000000001     46.078100000000006
