18

C      47.094250000000002     47.950899999999997     47.292500000000004
C      47.088250000000002     47.784000000000006     48.718300000000006
C      47.364050000000006     47.088300000000004     46.220800000000004
C      47.975949999999997     46.670400000000001     49.053500000000007
C      46.729250000000008     49.264000000000003     47.061100000000003
C      46.819050000000004     48.562800000000003     49.792500000000011
C      47.797950000000000     45.774900000000002     46.596700000000006
C      48.402450000000002     45.767600000000002     47.973900000000008
C      46.967050000000000     50.149200000000008     48.204900000000002
C      46.557050000000004     49.938000000000002     49.546600000000005
H      47.318650000000005     47.352800000000002     45.241700000000002
H      48.646550000000005     46.663200000000003     49.755699999999997
H      46.898350000000008     49.774400000000000     46.211300000000001
H      47.275449999999992     48.281500000000008     50.758299999999998
H      48.213049999999996     44.898600000000002     45.841500000000003
H      49.512649999999994     45.346900000000005     47.728900000000003
H      46.756749999999997     51.101399999999998     47.612000000000002
H      46.487350000000006     50.744700000000002     50.269300000000008
