43

C      47.373199999999983     47.886639999999993     48.933274999999988
C      48.044499999999999     49.201470000000000     48.763294999999999
C      46.979699999999994     47.981240000000000     44.317664999999998
C      46.776100000000000     47.175010000000000     47.791774999999994
C      48.557000000000002     49.728169999999992     47.418124999999996
C      46.355399999999989     47.304299999999998     45.335605000000001
C      47.704599999999999     49.103870000000001     44.862555000000000
C      46.892799999999994     48.021810000000002     46.510365000000000
C      47.998500000000007     48.848370000000003     46.313215000000000
C      47.518299999999996     47.256860000000003     50.196964999999999
C      48.498999999999995     47.788110000000003     51.081784999999996
C      48.896799999999999     49.118870000000001     51.009684999999990
C      48.936099999999996     49.799070000000000     49.709674999999997
C      46.859899999999996     45.960380000000001     50.513714999999991
C      46.995399999999989     45.393709999999999     51.756585000000001
C      47.981700000000004     45.861599999999996     52.589585000000000
C      48.643599999999992     47.055810000000001     52.339084999999997
C      46.214900000000000     45.848109999999998     47.870224999999998
C      45.837499999999991     45.736440000000002     49.386344999999999
C      49.882799999999989     50.325069999999997     47.399694999999994
C      50.816400000000002     50.554770000000005     46.397624999999998
C      50.155099999999990     50.347870000000000     48.929284999999993
C      46.944599999999994     47.407379999999996     42.922194999999995
C      45.223199999999991     46.315790000000000     44.965134999999997
H      47.998300000000000     49.925770000000000     43.984514999999995
H      49.516300000000001     49.611770000000000     51.920684999999999
H      46.464500000000001     44.594130000000000     52.144184999999993
H      49.120399999999989     47.542580000000001     53.167184999999989
H      45.698099999999997     44.656529999999997     49.525154999999998
H      44.728600000000000     46.667630000000003     44.238094999999994
H      46.472299999999990     45.322000000000003     46.983975000000001
H      44.821199999999990     46.016939999999998     49.533054999999990
H      51.695900000000009     51.279070000000004     46.784314999999999
H      50.847999999999999     50.013970000000000     45.459844999999994
H      50.945999999999998     49.547069999999991     48.988924999999995
H      50.476699999999994     51.405870000000000     49.242945000000006
H      49.242199999999997     45.655040000000000     53.961185000000000
H      47.104900000000001     46.435130000000001     42.963804999999994
H      45.582699999999988     47.175550000000001     42.702725000000001
H      47.207799999999992     47.915920000000000     42.038815000000000
H      45.580599999999990     45.194530000000000     44.953904999999999
H      44.304099999999991     46.167800000000000     45.731904999999998
O      48.495300000000000     45.224969999999999     53.771985000000001
