18

C      47.694249999999997     48.134899999999988     47.220599999999990
C      48.509550000000019     48.513999999999996     48.386799999999994
C      47.917350000000013     46.728200000000001     46.869500000000002
C      48.709650000000011     47.420900000000003     49.322700000000012
C      46.990250000000003     49.105900000000005     46.365899999999996
C      48.929850000000002     49.950800000000001     48.462999999999994
C      48.185550000000006     45.816100000000006     47.823499999999996
C      48.624150000000000     46.147700000000000     49.138700000000000
C      47.425350000000009     50.323900000000009     46.509699999999995
C      48.639450000000011     50.633800000000008     47.306200000000004
H      49.087350000000015     47.864599999999996     50.272599999999997
H      46.145550000000000     48.861300000000000     45.727400000000003
H      49.854450000000000     49.906199999999998     49.066699999999997
H      47.722350000000006     46.269400000000005     45.857500000000002
H      48.794850000000011     45.516599999999997     49.889700000000005
H      47.079450000000008     51.141100000000009     45.940100000000001
H      49.573850000000007     51.159000000000006     46.870099999999994
H      48.603549999999998     44.840999999999994     47.448400000000007
