5

C      47.970949999999995     48.185549999999992     47.799149999999997
H      48.789549999999998     48.679849999999995     47.159150000000004
H      48.489450000000005     47.775050000000000     48.840849999999996
H      47.210450000000002     48.828650000000003     47.350350000000006
H      47.643149999999999     47.171349999999997     47.747850000000007
