18

C      47.589849999999991     48.328299999999999     48.064549999999990
C      48.495950000000001     47.595100000000002     47.266449999999999
C      47.192450000000001     47.894800000000004     49.355849999999997
C      49.178150000000002     46.447300000000006     47.983350000000002
C      46.877549999999999     49.366500000000002     47.525250000000000
C      48.944250000000004     47.950300000000006     45.901850000000003
C      48.142150000000001     47.135900000000007     50.093049999999998
C      49.208050000000000     46.330500000000001     49.368949999999998
C      47.036750000000005     49.771300000000004     46.150350000000003
C      48.186650000000000     49.045200000000001     45.510649999999998
H      46.001449999999998     48.077000000000005     49.735450000000000
H      49.765150000000006     45.849100000000000     47.426450000000003
H      46.154350000000001     49.948600000000006     48.022050000000000
H      49.635050000000000     47.392400000000002     45.304049999999997
H      47.969450000000002     46.600800000000007     51.143549999999998
H      49.998550000000002     45.741300000000003     49.882850000000005
H      46.334850000000003     50.258699999999997     45.540549999999996
H      48.568849999999998     49.910500000000006     44.856450000000002
