5

C      48.657399999999996     47.389600000000002     47.385299999999987
C      47.562600000000003     47.638399999999997     47.698400000000007
H      46.185900000000004     48.677000000000000     48.768100000000004
H      49.814099999999996     47.323000000000000     47.231899999999996
O      46.334199999999996     48.041100000000007     48.096199999999996
