18

C      47.814299999999996     48.398199999999989     48.573949999999989
C      48.382599999999996     47.218100000000000     48.041749999999993
C      48.315699999999993     49.417600000000000     49.438749999999999
C      49.625199999999992     46.821300000000001     48.630549999999999
C      46.528999999999996     48.776999999999994     48.113649999999993
C      47.754099999999994     46.434699999999999     46.899949999999997
C      49.475200000000001     48.835199999999993     49.874849999999995
C      50.034899999999993     47.540199999999992     49.783149999999992
C      45.940100000000001     48.053599999999996     47.133949999999999
C      46.563800000000001     46.925000000000004     46.416449999999998
H      48.112200000000001     50.478800000000000     49.562349999999995
H      50.307299999999998     46.051600000000001     48.159649999999999
H      46.023499999999999     49.596100000000000     48.494649999999993
H      48.230800000000002     45.521200000000000     46.622749999999996
H      49.937899999999999     49.450200000000002     50.719750000000005
H      51.043300000000002     47.403100000000002     50.177149999999997
H      44.956699999999998     48.281600000000005     46.644049999999993
H      46.364599999999996     46.557200000000002     45.280249999999995
