18

C      48.062999999999988     47.736299999999986     47.201299999999989
C      48.028099999999995     48.335999999999999     48.612099999999998
C      47.566299999999998     48.643000000000001     46.210599999999999
C      48.004099999999994     49.628699999999995     48.620599999999996
C      48.282799999999995     46.354500000000002     46.969300000000004
C      48.054900000000004     47.347799999999992     49.673300000000012
C      47.883600000000001     50.023699999999991     46.309200000000004
C      47.879800000000003     50.532000000000011     47.545400000000001
C      47.906099999999995     45.367999999999995     48.018700000000010
C      47.662000000000006     46.026699999999991     49.262400000000000
H      47.271100000000004     48.163800000000009     45.387700000000009
H      48.001700000000000     49.906999999999996     49.674199999999999
H      48.728899999999996     45.945499999999996     46.072800000000001
H      48.131200000000007     47.598199999999991     50.791399999999996
H      47.947699999999998     50.513099999999994     45.208600000000004
H      47.878100000000003     51.721000000000004     47.591800000000006
H      47.632700000000000     44.278999999999996     47.770099999999999
H      47.654100000000000     45.470699999999994     50.179600000000008
