18

C      47.150799999999990     48.315069999999984     47.821349999999995
C      48.353499999999997     47.711669999999984     48.492950000000008
C      46.548400000000001     47.724469999999982     46.607150000000004
C      48.611800000000002     46.439669999999992     47.957549999999998
C      46.769499999999994     49.588472999999993     48.181950000000001
C      49.294499999999999     48.536769999999990     49.234349999999992
C      46.774000000000001     46.481369999999984     46.320750000000004
C      47.719899999999996     45.684769999999986     47.156350000000003
C      47.443899999999999     50.373594999999995     49.197850000000003
C      48.751000000000005     49.814266999999994     49.623050000000006
H      45.751099999999994     48.496269999999996     46.285950000000000
H      49.468700000000013     45.798669999999987     48.235650000000007
H      45.578900000000004     49.880427999999995     47.542150000000007
H      50.421099999999996     48.342569999999995     49.352350000000001
H      46.103200000000001     45.991669999999985     45.673950000000005
H      47.881900000000002     44.523669999999996     46.727649999999997
H      47.354299999999995     51.476330000000004     48.965450000000004
H      49.394999999999996     50.291302999999999     50.326049999999995
