18

C      48.098999999999990     47.658999999999992     47.938350000000000
C      47.181499999999993     48.664999999999999     47.861950000000007
C      48.062300000000000     46.640700000000002     48.985349999999997
C      46.061199999999992     48.808699999999995     48.733249999999998
C      49.208799999999989     47.437599999999996     47.059350000000009
C      47.432499999999997     49.211999999999996     46.486150000000009
C      46.961599999999997     46.765499999999996     49.920349999999999
C      46.064699999999995     47.988899999999994     49.814450000000008
C      49.800899999999992     48.530800000000006     46.435749999999999
C      48.600699999999996     49.265499999999996     45.866550000000004
H      49.064299999999996     46.123399999999997     49.191350000000000
H      45.364799999999995     49.859900000000003     48.928550000000001
H      49.698999999999991     46.498699999999999     47.320949999999996
H      46.454400000000000     49.616799999999998     45.944550000000007
H      46.804399999999994     46.760399999999997     51.037750000000003
H      45.199199999999998     47.963799999999999     50.575149999999994
H      50.800800000000002     48.685600000000001     45.825150000000008
H      48.781299999999995     49.876600000000003     44.962249999999997
