18

C      48.294699999999992     48.885949999999994     48.604249999999993
C      47.463700000000003     48.177950000000003     47.617749999999994
C      48.972700000000010     50.108049999999999     48.030750000000005
C      47.155500000000004     48.363349999999990     46.299749999999996
C      48.357500000000009     48.447449999999996     49.983449999999998
C      46.944600000000001     46.877549999999992     48.076850000000000
C      48.935799999999993     50.189950000000003     46.594649999999994
C      47.988900000000001     49.478649999999995     45.784349999999996
C      48.189300000000003     47.052050000000001     50.253949999999996
C      47.616599999999998     46.309649999999998     49.151550000000007
H      49.783799999999999     50.598750000000003     48.447949999999999
H      46.359500000000004     48.077649999999998     45.634149999999998
H      49.187100000000008     48.945649999999993     50.486349999999995
H      46.216200000000001     46.397849999999998     47.417650000000002
H      49.403500000000001     50.910850000000003     46.031950000000002
H      48.111100000000000     49.679849999999995     44.753949999999996
H      48.679300000000005     46.693649999999998     51.246050000000004
H      47.613900000000001     45.089149999999997     49.309949999999994
