41

C      47.678299999999986     46.247849999999993     50.072904999999999
C      51.308700000000002     47.955849999999998     47.454985000000008
C      49.045800000000000     46.056950000000001     49.662105000000004
C      46.790700000000001     46.979649999999992     49.231305000000006
C      50.824799999999996     47.152450000000002     48.528525000000002
C      46.388099999999994     48.765349999999998     47.361195000000002
C      50.525499999999994     49.218049999999991     46.934165000000007
C      48.227999999999994     49.780479000000014     46.015585000000002
C      49.471900000000005     47.050649999999990     48.691695000000003
C      47.237700000000004     47.835949999999997     47.991005000000001
C      49.141599999999997     49.028449999999992     47.010915000000004
C      48.677899999999994     47.963049999999996     47.818295000000006
C      50.143799999999999     45.224750000000000     50.147105000000010
C      45.408900000000003     46.835349999999991     49.381405000000001
C      44.621899999999997     47.877150000000000     48.697965000000003
C      45.056899999999999     48.905749999999998     47.848625000000006
C      52.617400000000004     47.955749999999995     47.104855000000001
C      52.619199999999992     50.127102000000001     46.112725000000005
C      51.207700000000003     50.236897999999997     46.356975000000006
C      44.050399999999996     49.061049999999994     46.786295000000003
C      44.883899999999997     49.982534000000001     48.689285000000005
H      48.244199999999992     49.464499000000004     44.958095000000000
H      48.677899999999994     50.838510000000014     45.724355000000003
H      49.575199999999995     44.552449999999993     50.902205000000009
H      50.927199999999999     44.927349999999990     49.600805000000001
H      45.598500000000001     45.189349999999990     50.975505000000013
H      43.574900000000000     47.928150000000002     48.658105000000006
H      44.981700000000004     46.170149999999992     50.295505000000006
H      51.563199999999995     46.555949999999996     48.909805000000006
H      53.087099999999992     47.007750000000001     47.436585000000001
H      53.183300000000003     50.919730000000001     45.686855000000001
H      50.843299999999999     51.447550000000007     46.040945000000001
H      44.177400000000006     48.077150000000003     46.159285000000004
H      44.353300000000004     50.168615000000003     46.485425000000006
H      42.816699999999997     49.046449999999993     46.895595000000000
H      43.788200000000003     49.869354000000001     49.101005000000001
H      45.577699999999993     50.021969000000006     49.436205000000001
H      45.333200000000005     51.008790000000005     48.447995000000006
N      46.946100000000001     49.784889000000007     46.653205000000000
N      53.162300000000002     48.976950000000002     46.388235000000002
S      47.210499999999996     44.932749999999999     51.041905000000000
