18

C      47.190244999999990     47.362199999999987     48.661699999999996
C      47.944144999999999     47.897099999999995     47.437500000000007
C      45.931344999999993     48.144499999999994     48.995200000000004
C      47.661345000000004     49.208399999999997     46.745800000000010
C      47.637444999999992     46.228499999999997     49.319100000000013
C      49.165344999999995     47.400999999999996     47.313300000000005
C      45.654244999999996     49.289000000000001     48.021599999999999
C      46.597544999999997     50.041799999999995     47.162700000000008
C      48.951044999999986     45.769400000000005     48.981500000000004
C      49.754545000000000     46.318500000000000     48.015000000000008
H      45.724544999999999     48.085400000000007     50.047699999999999
H      48.266444999999997     49.690899999999999     45.952300000000001
H      46.991644999999998     45.321899999999999     49.883900000000004
H      49.872745000000002     47.651899999999998     46.455800000000004
H      45.237755000000000     48.704599999999999     47.261500000000005
H      46.462044999999996     51.061499999999995     46.902200000000001
H      49.311545000000002     44.938500000000005     49.455800000000004
H      50.762245000000000     45.800399999999996     47.670100000000005
