42

C      46.221750000000000     48.139099999999999     48.577899999999985
C      46.867650000000012     47.179600000000008     49.390600000000006
C      50.320049999999995     48.470599999999990     45.731600000000000
C      50.847049999999996     47.262200000000007     46.388099999999994
C      46.856050000000010     48.496700000000004     47.228799999999993
C      48.275150000000011     46.820800000000006     49.114099999999993
C      48.761550000000000     48.503399999999999     45.727699999999999
C      50.201250000000002     46.672100000000000     47.441500000000005
C      48.086649999999992     47.947299999999998     46.936199999999999
C      48.824950000000001     47.059600000000003     47.751599999999996
C      44.888649999999998     48.388299999999987     48.966999999999999
C      44.287450000000007     47.717100000000002     50.089399999999998
C      45.055450000000008     47.061400000000006     51.184899999999999
C      46.325749999999999     46.785200000000003     50.778400000000005
C      51.163350000000008     49.378499999999988     45.077699999999993
C      52.370350000000002     48.860200000000006     44.725799999999992
C      52.805250000000001     47.585999999999999     45.322900000000004
C      46.284450000000007     49.283199999999994     46.115799999999993
C      42.763750000000002     47.322400000000002     48.003500000000003
C      43.563050000000004     48.567499999999995     48.159599999999998
C      46.811950000000010     49.535499999999999     44.822599999999994
C      48.247150000000005     49.341499999999996     44.677800000000005
C      43.543650000000000     46.078400000000002     47.676400000000001
H      48.336449999999999     45.786400000000000     49.531300000000002
H      50.772750000000002     46.323099999999997     48.288700000000006
H      43.324950000000001     47.813400000000001     50.643199999999993
H      44.801650000000009     46.967399999999998     52.297700000000006
H      47.120949999999993     46.422700000000006     51.387799999999999
H      52.970749999999995     49.298899999999989     43.971900000000005
H      54.073049999999995     47.346599999999995     45.199200000000005
H      45.130050000000011     49.738199999999992     46.049300000000002
H      41.926950000000005     47.562700000000007     47.307299999999998
H      42.228950000000012     47.275400000000005     48.951800000000006
H      46.103250000000003     49.537599999999998     43.876099999999994
H      48.564149999999998     49.463200000000001     43.702299999999994
H      51.330550000000002     51.106999999999999     45.694500000000005
H      43.497350000000012     44.893000000000001     47.533000000000001
H      44.415550000000010     46.118899999999996     48.440200000000004
H      44.021349999999998     46.081699999999998     46.739900000000006
N      52.060450000000003     46.954599999999999     46.101500000000001
O      42.954050000000009     49.534400000000005     47.825299999999999
O      51.221050000000005     50.731899999999996     44.756399999999999
