18

C      47.107499999999995     48.242199999999997     47.908849999999994
C      48.503100000000003     47.991500000000002     47.984849999999994
C      46.580500000000001     47.084699999999998     47.070650000000001
C      48.979900000000001     46.725300000000004     47.348649999999992
C      46.388899999999992     49.514099999999999     48.169550000000001
C      49.551999999999992     48.842299999999994     48.347250000000003
C      46.902699999999996     45.989400000000003     46.383049999999997
C      48.353799999999993     45.641199999999998     46.685350000000000
C      47.491399999999999     50.196399999999997     48.794550000000001
C      48.902500000000003     49.916600000000003     49.116649999999993
H      45.577100000000002     47.567499999999995     46.891149999999996
H      50.068100000000001     46.859700000000004     47.541049999999998
H      45.399400000000000     49.940399999999997     47.991849999999999
H      50.600600000000000     48.877300000000005     48.877049999999997
H      46.136099999999999     45.379499999999993     45.904949999999999
H      49.056799999999996     44.690100000000001     46.420149999999992
H      47.489599999999996     51.309899999999999     49.351249999999993
H      49.307299999999998     50.520399999999995     50.095050000000001
