25

C      49.886899999999997     48.550699999999999     48.786744999999989
C      49.072200000000002     47.234700000000004     48.932744999999997
C      46.181000000000004     49.189700000000002     46.125075000000002
C      49.491500000000009     49.070700000000002     47.579345000000004
C      47.839100000000009     46.821600000000004     48.353445000000001
C      47.621100000000006     49.845800000000004     45.936275000000002
C      46.090899999999998     48.176900000000003     47.018344999999997
C      48.333700000000000     48.909800000000004     46.935045000000002
C      47.438400000000009     47.908300000000004     47.412745000000001
C      51.058600000000006     48.586600000000004     49.629845000000003
C      51.456499999999998     47.344700000000003     50.357044999999999
C      50.703099999999999     46.209200000000010     50.522345000000001
C      49.520199999999996     46.207400000000007     49.780445000000000
C      44.886800000000001     47.333500000000001     47.474145000000000
H      47.735800000000005     50.773899999999998     46.168545000000002
H      50.282400000000003     49.842300000000009     47.228544999999997
H      47.131000000000007     46.145300000000006     48.690645000000004
H      47.923400000000008     50.081000000000003     44.783855000000003
H      45.164899999999996     49.199800000000010     45.384135000000001
H      51.695900000000002     49.482300000000009     49.580245000000005
H      52.222799999999999     47.239000000000004     51.104545000000002
H      48.885600000000004     45.269000000000005     49.701345000000003
H      45.229400000000005     46.304000000000002     48.106144999999998
H      51.102100000000000     45.226100000000002     51.216144999999997
O      43.777200000000001     47.768700000000010     47.253644999999999
