18

C      47.232249999999993     47.548829999999988     47.807849999999995
C      47.827149999999989     48.795450000000002     48.365549999999999
C      47.202950000000001     47.297519999999999     46.449750000000002
C      49.005250000000004     49.110050000000001     47.561650000000000
C      46.637550000000005     46.623570000000001     48.640550000000005
C      47.741149999999990     49.204749999999990     49.717550000000003
C      48.019449999999992     47.875000000000000     45.545850000000002
C      48.985649999999993     48.737150000000000     46.214650000000006
C      46.553849999999997     46.915179999999999     50.085149999999999
C      47.233949999999993     48.156540000000000     50.432150000000007
H      46.844449999999995     46.155650000000001     45.502650000000003
H      49.864249999999998     49.526650000000004     48.269550000000002
H      46.019649999999999     46.020350000000001     48.035650000000004
H      48.426949999999991     49.979649999999999     50.503550000000004
H      48.362150000000000     47.534930000000003     44.507350000000002
H      49.980350000000001     48.847449999999995     45.963450000000002
H      46.197050000000004     46.222079999999998     50.934150000000002
H      47.649849999999986     48.370649999999998     51.492649999999998
