18

C      48.333799999999997     48.498703999999989     47.648799999999994
C      47.403499999999994     47.560460000000006     48.354899999999986
C      49.002299999999991     48.328465999999992     46.386600000000001
C      47.074500000000000     46.371560000000017     47.502799999999993
C      48.804000000000002     49.781099999999995     48.179399999999987
C      47.313099999999991     47.806493300000000     49.724399999999989
C      48.685999999999993     47.175960000000003     45.643099999999990
C      47.962599999999995     46.199460000000016     46.435099999999991
C      48.274500000000003     50.042149999999992     49.442499999999995
C      47.618600000000001     49.005359999999982     50.209299999999999
H      49.422499999999999     49.238090000000000     45.804800000000000
H      46.571100000000001     45.620559999999983     48.093599999999995
H      49.428899999999999     50.617229999999992     47.857299999999995
H      46.746600000000001     46.968659999999986     50.252399999999994
H      49.289999999999992     46.897959999999983     44.778700000000001
H      48.017700000000005     45.177060000000012     46.010599999999997
H      48.626599999999996     50.822939999999988     50.056599999999989
H      47.556399999999996     49.044019999999989     51.221299999999999
