5

C      47.610250000000001     47.890850000000000     47.760387499999993
H      48.662149999999997     47.742750000000008     47.497717500000000
H      47.522350000000003     47.928750000000001     48.850467500000001
H      47.337850000000003     47.033049999999996     47.149532499999999
H      47.910650000000004     48.966950000000004     47.353825499999999
