18

C      48.151099999999992     47.597934999999985     48.404399999999995
C      47.042800000000000     47.499254999999991     47.433000000000000
C      49.544799999999995     47.234754999999993     48.479799999999990
C      47.449199999999998     46.858424999999997     46.168599999999991
C      47.879899999999999     48.718364999999991     49.337100000000000
C      46.024299999999997     48.512354999999999     47.392400000000002
C      49.866500000000002     46.879414999999995     47.167899999999996
C      48.793999999999997     46.367274999999992     46.213299999999997
C      46.840699999999998     49.526465000000002     49.434899999999992
C      45.822400000000002     49.560654999999997     48.307399999999994
H      46.623500000000000     46.484034999999992     45.567900000000002
H      50.143599999999999     47.292634999999997     49.460000000000001
H      48.455500000000001     48.477224999999990     50.290999999999990
H      45.412399999999998     48.211444999999998     46.496899999999989
H      50.981300000000005     46.432744999999997     46.669999999999995
H      49.356999999999999     45.699574999999996     45.711799999999990
H      46.675600000000003     50.300425000000004     50.432099999999998
H      45.018699999999995     50.262224999999987     48.378599999999999
