18

C      47.351199999999992     47.770849999999996     47.809899999999992
C      48.685899999999997     48.401050000000005     47.781599999999997
C      47.188200000000002     46.391849999999998     48.292299999999997
C      49.668500000000002     47.571649999999998     48.350300000000004
C      46.470100000000002     48.629449999999999     47.085200000000000
C      49.088900000000002     49.726549999999996     47.554400000000001
C      48.302000000000000     45.547950000000000     48.214299999999994
C      49.496700000000004     46.253149999999998     48.639799999999994
C      46.844999999999999     49.928750000000001     46.842399999999998
C      48.133200000000009     50.497650000000000     46.900499999999994
H      46.292200000000001     45.884349999999998     48.006200000000007
H      50.619199999999999     47.907750000000000     48.905600000000007
H      45.380800000000001     48.216349999999998     47.188000000000002
H      50.057299999999991     50.030349999999999     47.845100000000002
H      48.252099999999999     44.369949999999996     47.985100000000003
H      50.241099999999996     45.795250000000003     49.335800000000006
H      46.127700000000004     50.719150000000006     46.664199999999994
H      48.253800000000005     51.630050000000004     46.873900000000006
