64

C      47.044604999999990     44.112549999999992     44.789349999999999
C      47.495505000000001     43.096049999999998     43.554349999999999
C      48.670487000000016     49.532550000000001     47.452449999999999
C      48.031170000000010     49.719849999999994     48.797449999999998
C      45.111004999999999     45.839550000000003     47.056449999999998
C      44.799705000000010     46.068950000000001     48.521150000000006
C      48.035595000000008     48.414149999999999     46.905749999999998
C      47.239505000000001     48.812249999999999     49.445650000000001
C      46.251404999999998     46.617949999999993     46.675750000000008
C      45.805005000000001     46.616950000000003     49.394350000000003
C      47.028205000000007     47.487449999999995     47.499349999999993
C      46.697605000000003     47.616050000000001     48.739850000000004
C      49.676655000000004     50.388750000000002     46.907049999999998
C      50.243005000000004     51.288750000000007     48.028250000000000
C      48.654239000000011     50.866349999999997     49.583849999999998
C      44.146104999999999     45.125749999999996     46.219750000000005
C      43.037304999999996     44.467649999999999     46.751149999999996
C      42.731205000000010     44.915849999999999     48.077550000000002
C      43.650205000000007     45.481449999999995     48.981949999999998
C      50.191955000000007     50.020750000000000     45.718249999999998
C      51.467475000000007     50.582149999999999     45.612749999999991
C      52.008545000000012     51.582450000000001     46.559550000000002
C      51.537475000000008     51.842349999999996     47.904150000000001
C      49.741965000000008     48.823849999999993     44.954250000000002
C      48.594423000000013     48.221750000000000     45.485250000000008
C      47.767438500000011     47.445349999999991     44.617750000000001
C      46.978605000000009     46.458550000000002     45.359549999999999
C      44.571805000000005     45.148449999999997     44.790050000000008
C      46.254404999999998     45.390050000000002     44.601650000000006
C      47.371905000000005     48.822550000000000     50.937749999999994
C      48.509922000000010     48.105649999999997     51.403350000000003
C      48.339063000000003     51.211650000000006     50.948149999999998
C      46.930005000000001     51.839449999999999     50.727350000000001
C      49.048445000000008     51.306750000000008     52.161149999999992
C      52.940095000000021     52.801649999999995     46.145949999999999
H      46.505305000000000     43.421149999999997     45.552350000000004
H      48.016467000000013     44.406450000000007     45.431250000000006
H      46.155904999999997     51.022049999999993     50.312049999999999
H      45.455604999999998     46.751649999999998     50.369150000000005
H      42.477905000000000     43.518149999999999     46.455349999999996
H      42.023305000000001     44.510949999999994     48.747749999999996
H      43.474905000000000     45.560149999999993     50.089250000000007
H      52.274395000000013     50.244950000000003     44.988450000000000
H      50.228325000000012     48.286150000000006     44.005949999999999
H      47.903085000000011     47.039749999999998     43.593450000000004
H      43.922105000000009     45.860549999999989     44.227249999999998
H      44.406705000000009     44.266149999999996     44.101050000000001
H      46.407905000000007     45.643249999999995     43.464550000000003
H      46.658005000000010     49.469250000000002     51.386949999999999
H      49.046435000000010     48.180149999999998     52.379149999999996
H      49.379115000000020     47.625349999999997     50.671949999999995
H      52.996505000000006     52.782250000000005     45.134850000000000
H      46.425705000000001     52.693950000000001     51.396349999999998
H      46.944105000000000     52.751649999999998     50.091350000000006
H      49.886435000000013     50.854349999999997     52.461649999999992
H      48.531606000000011     51.435249999999996     53.180849999999992
H      52.671335000000006     53.507649999999998     48.945149999999998
H      52.418125000000011     53.774950000000004     46.566749999999999
H      46.450505000000000     42.762249999999995     43.311250000000001
H      48.136965000000011     43.961849999999998     42.819150000000008
H      48.211256000000013     42.225049999999996     43.900149999999996
H      53.976694999999999     53.135549999999995     46.591750000000005
N      49.674855000000015     51.449150000000003     49.211650000000006
O      51.967935000000011     52.738349999999997     48.872550000000004
