18

C      47.320649999999993     48.471499999999999     47.764549999999986
C      47.990550000000006     47.344800000000006     47.088149999999999
C      46.171150000000004     48.330100000000002     48.633850000000010
C      47.386550000000000     46.008700000000005     47.104349999999997
C      47.991849999999999     49.856899999999996     47.740949999999998
C      49.345250000000000     47.600600000000000     47.077150000000003
C      45.552650000000000     47.089100000000002     48.516049999999993
C      46.122950000000003     46.018100000000004     47.772250000000000
C      49.374950000000005     50.016599999999997     47.428449999999998
C      50.106449999999995     48.792599999999993     47.320349999999991
H      46.174150000000004     49.120499999999993     49.373850000000004
H      48.001250000000013     45.119399999999999     46.777549999999991
H      47.143850000000000     50.471000000000004     48.138949999999994
H      50.088349999999991     46.897000000000006     46.626149999999996
H      44.758150000000001     46.696899999999999     49.359049999999996
H      45.304150000000000     45.055199999999999     47.779049999999998
H      49.574749999999995     50.944800000000001     46.906649999999999
H      51.241849999999999     48.738200000000006     47.282449999999997
