18

C      47.911999999999992     47.314499999999988     48.745699999999985
C      48.279599999999995     48.282200000000003     47.629700000000000
C      47.086500000000001     47.647900000000007     49.859999999999999
C      47.980699999999999     49.670500000000004     47.795299999999997
C      48.087100000000000     45.957200000000000     48.304199999999994
C      48.951699999999995     48.074200000000005     46.480699999999999
C      46.777899999999995     48.939999999999998     49.730500000000006
C      47.045899999999996     50.010900000000007     48.814999999999998
C      48.934499999999993     45.824200000000005     47.126499999999993
C      49.219000000000001     46.734300000000005     45.997999999999990
H      46.707999999999998     47.243099999999998     50.701400000000007
H      48.167899999999996     50.813000000000002     47.266800000000003
H      47.560400000000001     45.136200000000002     48.624899999999997
H      48.823399999999999     48.956199999999995     45.680799999999991
H      46.255400000000002     49.537499999999994     50.603600000000000
H      46.644799999999996     51.154700000000005     49.258200000000002
H      48.882799999999996     44.845299999999995     46.775099999999995
H      49.744599999999998     46.529399999999995     45.298599999999993
