18

C      48.182049999999997     48.162899999999993     47.225149999999992
C      47.611449999999991     47.873500000000007     48.391549999999995
C      49.371749999999992     47.640799999999999     46.876649999999998
C      48.458749999999995     46.825500000000005     49.230050000000006
C      47.466149999999999     49.185200000000009     46.532250000000005
C      46.392849999999996     48.308199999999999     49.023949999999999
C      50.026049999999998     46.555199999999999     47.573549999999997
C      49.650149999999996     46.159599999999998     48.820350000000005
C      46.435249999999996     49.991700000000009     47.181849999999997
C      45.905450000000002     49.550700000000006     48.444850000000002
H      49.830249999999992     47.980199999999996     45.828050000000005
H      48.151449999999997     46.726600000000005     50.405450000000002
H      47.683549999999997     49.577300000000008     45.594549999999998
H      45.978849999999994     47.869200000000006     49.844850000000008
H      50.961449999999999     46.000799999999998     47.219650000000001
H      50.080950000000001     45.111699999999999     49.054249999999996
H      46.004049999999992     50.888300000000001     46.606049999999996
H      45.038550000000001     50.019800000000004     48.955750000000002
