60

C      47.097999999999992     47.735449999999993     47.248149999999995
C      48.357799999999997     48.371949999999998     46.688650000000003
C      49.160799999999995     48.588250000000002     42.453849999999996
C      46.009599999999999     47.297950000000000     46.461350000000003
C      48.372299999999996     48.669249999999991     45.258149999999993
C      44.865000000000002     48.058250000000001     44.265149999999998
C      47.638100000000001     48.623049999999992     43.044949999999993
C      46.035499999999999     47.711449999999999     45.022950000000002
C      47.306399999999996     48.261750000000006     44.445649999999993
C      46.977400000000003     47.388149999999996     48.699049999999993
C      47.916800000000002     47.917349999999999     49.604149999999997
C      49.078199999999995     48.649650000000008     49.223750000000003
C      49.130600000000001     48.866050000000001     47.795749999999991
C      45.760000000000005     46.925849999999997     49.147649999999992
C      45.995599999999996     46.421549999999996     50.596550000000001
C      46.733699999999999     46.938150000000000     51.724049999999998
C      47.711700000000008     47.834150000000008     51.127049999999990
C      44.747199999999999     47.226749999999996     47.251150000000003
C      49.987000000000002     49.326750000000004     50.169850000000004
C      51.067899999999995     50.077849999999998     49.553549999999994
C      51.151399999999995     50.216250000000002     48.152549999999998
C      50.124800000000008     49.792550000000006     47.181049999999992
C      48.414800000000000     48.672449999999998     52.097149999999992
C      49.537900000000008     49.429749999999999     51.579149999999991
C      50.597700000000003     49.733949999999993     45.840849999999996
C      49.644800000000004     49.373049999999992     44.918349999999997
C      43.654600000000002     47.370549999999994     46.354549999999996
C      43.690500000000000     47.800049999999999     44.880850000000002
C      48.071300000000008     49.382750000000001     53.399149999999999
C      46.765200000000000     49.966750000000005     53.841949999999990
C      51.922200000000004     50.362750000000005     45.303449999999991
C      52.600499999999997     50.948350000000005     48.337849999999996
C      50.103999999999999     48.962850000000003     43.598250000000000
C      45.055100000000003     45.392150000000001     50.864349999999995
H      49.233000000000004     47.514849999999996     42.282850000000003
H      47.161600000000000     49.793149999999997     43.016950000000001
H      49.481000000000002     49.065449999999998     41.361849999999997
H      46.861699999999999     46.666750000000000     52.658849999999994
H      51.688199999999995     50.700249999999997     50.107250000000001
H      50.107500000000002     50.141549999999995     52.176650000000002
H      42.763800000000003     47.453150000000001     46.761149999999994
H      42.784900000000000     47.688850000000002     44.256250000000001
H      44.760400000000004     48.180450000000000     42.984050000000003
H      46.246800000000000     50.791550000000001     53.166549999999994
H      46.765000000000001     50.774650000000001     54.638150000000003
H      46.158299999999997     49.169650000000004     54.420449999999995
H      51.027900000000002     49.152050000000003     43.097149999999992
H      52.359499999999997     49.898049999999998     44.470350000000003
H      52.520099999999999     50.868650000000002     46.137149999999998
H      53.236199999999997     50.445149999999998     49.013749999999995
H      52.407399999999996     51.895150000000001     48.789449999999995
H      52.991900000000001     51.085449999999994     47.371249999999996
H      46.944800000000001     47.922550000000001     42.541449999999990
H      51.340900000000005     51.007750000000001     44.496249999999996
H      44.932299999999998     44.984849999999994     51.973549999999996
H      44.182500000000005     45.662849999999999     50.254550000000002
H      45.563600000000001     44.274650000000001     49.241849999999992
N      44.593899999999998     46.943449999999999     48.506750000000004
O      49.020600000000002     49.044849999999997     54.015749999999990
O      44.856999999999999     44.104849999999999     49.914250000000003
