44

C      47.643149999999991     47.876449999999991     46.554099999999991
C      48.884050000000002     48.372850000000000     45.785199999999996
C      49.867849999999990     49.286949999999997     50.534200000000006
C      51.221649999999997     49.746250000000011     50.065800000000003
C      47.676249999999996     47.792949999999998     48.028500000000001
C      50.189650000000000     48.835650000000008     46.558600000000006
C      49.196349999999995     48.108550000000001     49.879700000000007
C      51.059749999999994     49.646950000000004     48.690000000000005
C      48.944649999999996     48.441450000000010     48.465600000000002
C      49.983549999999994     49.305550000000004     48.001299999999993
C      46.516149999999996     47.213250000000002     46.002900000000004
C      46.320449999999994     47.313450000000003     44.511400000000002
C      47.210449999999994     48.258249999999997     43.852300000000007
C      48.532550000000001     48.380149999999993     44.494999999999997
C      49.676149999999993     49.440150000000003     51.908899999999996
C      50.633249999999990     49.885349999999995     52.744099999999996
C      51.855750000000000     50.323650000000001     52.183399999999999
C      52.261849999999995     50.330050000000000     50.936299999999996
C      45.869249999999994     46.427550000000004     46.919000000000004
C      44.896649999999994     45.660350000000001     46.187900000000006
C      44.278649999999999     46.279150000000001     44.901599999999995
C      44.933449999999993     47.210950000000004     44.015300000000003
C      46.907550000000001     46.977850000000004     48.882700000000007
C      47.253749999999997     46.700850000000003     50.263399999999997
C      48.340149999999994     47.317349999999998     50.705599999999997
C      49.350049999999996     48.481549999999991     43.182099999999998
H      50.555149999999998     47.744650000000000     46.580099999999995
H      51.881549999999990     49.800649999999997     48.177200000000006
H      46.985050000000001     48.784150000000004     42.964300000000001
H      50.453049999999990     49.793050000000001     53.755000000000003
H      52.720849999999999     51.024650000000001     52.887599999999999
H      53.013949999999994     50.871649999999995     50.673200000000001
H      42.986050000000006     46.240450000000003     45.394200000000005
H      44.424049999999994     47.632350000000002     43.024099999999997
H      48.478549999999998     46.992750000000001     51.677500000000002
H      46.592950000000002     45.883250000000004     50.757600000000004
H      48.434849999999997     49.571550000000009     53.530899999999995
H      48.700549999999993     48.978749999999998     42.244999999999997
H      49.728749999999991     47.324550000000002     43.298200000000001
H      44.442849999999993     44.975349999999999     46.811799999999998
H      50.793149999999997     49.546750000000003     46.051600000000001
H      50.181249999999991     49.039850000000008     43.641399999999997
N      45.878649999999993     46.312950000000001     48.292300000000004
O      48.441049999999990     49.430850000000000     52.569700000000005
