18

C      47.775199999999984     48.517349999999986     48.148199999999989
C      48.595499999999994     47.235349999999997     47.825000000000003
C      46.366300000000003     48.522649999999999     47.945599999999999
C      47.857199999999999     46.122349999999997     47.162700000000001
C      48.557200000000002     49.697549999999993     48.559299999999993
C      49.875499999999995     47.046750000000003     48.267899999999997
C      45.750599999999999     47.362750000000005     47.661299999999997
C      46.507899999999999     46.414249999999996     46.961299999999994
C      49.882200000000005     49.352350000000001     48.771900000000002
C      50.310600000000001     48.084050000000005     49.086299999999994
H      45.923799999999993     49.454949999999997     48.247599999999991
H      48.359299999999998     45.236850000000004     46.737799999999993
H      48.299399999999999     50.763149999999996     48.588500000000010
H      50.525900000000000     46.118349999999992     48.372399999999999
H      44.618800000000000     47.389049999999997     47.664000000000001
H      46.138200000000005     45.523150000000001     46.505499999999998
H      50.794000000000004     50.235849999999999     49.023800000000008
H      51.381200000000000     47.952550000000002     49.494500000000002
