11

C      48.136949999999992     47.988199999999992     47.862999999999992
C      48.760549999999995     49.021700000000010     46.898699999999998
C      47.196849999999998     48.740900000000011     48.869899999999987
C      48.122749999999996     46.673500000000004     47.809699999999999
H      49.698149999999998     48.753700000000009     46.210899999999995
H      47.563749999999999     49.833400000000012     48.982500000000002
H      46.301850000000002     49.076500000000010     48.284900000000000
H      47.659149999999997     45.976399999999998     48.501499999999993
H      46.827150000000003     47.939900000000009     49.789100000000005
H      48.521150000000006     46.208100000000002     46.739399999999996
O      48.280249999999995     50.023600000000002     46.547100000000000
