18

C      48.504349999999995     47.584999999999994     48.112849999999987
C      47.372850000000000     48.480799999999995     47.702650000000006
C      48.397050000000000     46.215799999999994     48.356150000000000
C      46.015050000000002     48.020299999999999     47.731349999999992
C      49.809550000000002     48.164000000000009     48.507549999999995
C      47.658749999999998     49.885399999999997     47.542149999999992
C      46.985650000000000     45.890000000000001     48.615449999999996
C      45.845849999999999     46.653600000000004     48.199650000000005
C      50.059449999999998     49.417799999999993     48.099750000000000
C      49.028950000000002     50.235099999999996     47.477450000000005
H      49.300250000000005     51.094100000000005     47.005049999999997
H      49.387250000000002     45.747900000000001     48.524249999999995
H      45.015749999999997     48.163000000000004     47.174849999999992
H      50.409149999999997     47.465600000000002     48.994950000000003
H      46.735749999999996     44.905899999999995     48.895349999999993
H      44.760950000000001     46.242200000000004     48.309749999999994
H      51.239049999999999     49.757600000000004     48.355949999999993
H      46.941049999999997     50.749199999999995     47.386650000000003
