6

C      48.005499999999991     47.440849999999990     47.702149999999996
C      48.056699999999992     48.702449999999999     48.248649999999998
H      48.521500000000003     47.375950000000003     46.800150000000002
H      47.240200000000002     46.473650000000006     47.872850000000000
H      48.759799999999998     49.526349999999994     47.948050000000009
H      47.394300000000001     49.028350000000003     49.199849999999998
