22

C      49.516999999999996     50.417149999999999     48.457199999999986
C      49.420099999999991     50.449550000000002     47.119200000000006
C      48.359699999999989     49.669750000000008     46.433999999999997
C      47.565699999999993     48.609949999999998     47.115899999999996
C      47.673599999999993     48.678849999999997     48.513500000000008
C      48.664999999999992     49.478850000000008     49.146900000000002
C      46.880699999999990     48.034350000000003     49.646600000000007
C      47.145499999999998     46.789550000000006     50.360500000000002
C      48.062999999999988     45.833250000000007     49.290900000000008
C      47.731299999999990     50.330749999999995     45.342799999999997
H      50.171799999999990     50.970349999999996     49.066400000000002
H      50.175500000000000     51.059950000000001     46.565300000000008
H      46.964099999999988     47.784750000000003     46.316000000000003
H      48.714199999999991     49.448949999999996     50.253100000000003
H      47.894799999999989     46.694050000000004     50.995500000000007
H      46.177199999999999     46.010450000000006     50.394300000000001
H      47.628099999999989     46.077750000000009     48.328100000000006
H      49.068399999999997     46.326250000000002     49.592300000000009
H      47.719799999999992     44.802549999999997     49.758000000000010
H      48.189399999999992     51.197450000000003     45.004499999999993
H      46.680499999999995     49.901550000000000     45.284700000000001
O      45.824500000000000     48.584450000000004     49.548400000000001
