25

C      46.302700000000002     49.684529999999995     50.356984999999995
C      46.225600000000007     48.562129999999996     49.378374999999998
C      47.518800000000006     47.134410000000003     48.091954999999999
C      48.969600000000007     47.312730000000002     47.489375000000003
C      46.490200000000009     46.829399999999993     47.218735000000002
C      49.142500000000005     46.508989999999997     46.311374999999998
C      47.273100000000007     47.428029999999993     49.477164999999999
C      49.992300000000007     47.687629999999999     48.167155000000001
C      46.690000000000005     46.241469999999993     45.998595000000002
C      48.044699999999999     46.371669999999995     45.426208000000003
C      48.622199999999999     47.936729999999997     50.217115000000000
C      49.780300000000004     48.366630000000001     49.494734999999999
H      45.445200000000007     50.351129999999998     50.283475000000003
H      47.345500000000008     50.135130000000004     50.488835000000002
H      46.811799999999998     49.286630000000002     48.486195000000002
H      45.041300000000000     48.064030000000002     49.290025000000000
H      45.472400000000000     46.599469999999997     47.661065000000001
H      50.253900000000009     46.781890000000004     45.816155000000002
H      46.543399999999998     46.568110000000004     50.280614999999997
H      50.958700000000000     47.816729999999993     47.573905000000003
H      45.905700000000003     45.648870000000002     45.410246000000001
H      48.024499999999996     46.437100000000001     44.365555000000008
H      48.735300000000002     48.614829999999998     51.021175000000007
H      50.678600000000010     48.826830000000001     49.890594999999998
H      46.176200000000001     49.248729999999995     51.634444999999992
