19

C      47.339699999999986     47.512949999999996     47.646614999999997
C      48.764399999999995     47.987049999999996     48.072115000000004
C      47.181200000000004     46.696250000000006     46.506715000000000
C      49.777199999999993     48.126549999999995     47.048315000000002
C      46.390799999999999     47.890550000000005     48.579214999999998
C      48.429500000000004     48.752949999999998     49.321715000000005
C      48.132700000000000     46.966449999999995     45.591915000000000
C      49.356399999999994     47.801550000000006     45.846115000000005
C      46.412499999999994     49.050650000000005     51.010715000000005
C      46.911199999999994     48.726550000000003     49.545615000000005
H      47.078500000000005     49.670249999999996     51.813814999999998
H      46.141700000000000     46.329750000000004     46.314515000000000
H      50.864400000000003     48.703450000000004     47.236015000000002
H      45.135599999999997     47.748850000000004     48.501515000000005
H      49.290899999999993     49.319350000000000     49.606115000000010
H      48.063500000000005     46.729150000000004     44.186185000000002
H      50.212499999999991     47.743250000000003     45.114215000000002
H      45.373000000000005     48.870750000000001     51.352915000000003
H      46.976199999999992     48.311650000000000     51.668515000000006
