18

C      47.865249999999996     48.643749999999990     48.432249999999996
C      47.518450000000001     47.243150000000000     48.467749999999995
C      47.301050000000004     49.689349999999990     47.536649999999995
C      46.677750000000003     46.821149999999996     47.347549999999998
C      49.085050000000010     48.685049999999990     49.269949999999994
C      48.421549999999996     46.199149999999996     48.752150000000000
C      46.680650000000000     49.133949999999999     46.436849999999993
C      46.059150000000002     47.836749999999995     46.452449999999999
C      49.815150000000003     47.550049999999999     49.920050000000003
C      49.542450000000002     46.195349999999998     49.438549999999992
H      47.381050000000002     50.783150000000006     47.648550000000000
H      46.669849999999997     45.679049999999997     47.058750000000003
H      49.393850000000000     49.710449999999994     49.455249999999992
H      47.869050000000001     45.323249999999994     48.354849999999999
H      46.375550000000004     49.768149999999999     45.437250000000006
H      45.454149999999998     47.506249999999994     45.612250000000003
H      50.545850000000002     47.858349999999994     50.562749999999994
H      50.145550000000000     45.216849999999994     49.846649999999997
