18

C      47.861349999999995     48.104549999999989     48.698399999999992
C      47.903949999999995     48.625150000000005     47.314500000000002
C      46.906750000000002     47.033149999999992     49.089899999999993
C      46.907550000000001     48.277650000000008     46.389500000000005
C      48.934350000000002     48.239649999999997     49.566700000000004
C      48.981449999999995     49.473649999999992     46.873699999999992
C      46.085050000000003     46.725650000000002     47.988800000000005
C      45.886350000000000     47.672749999999994     46.825200000000002
C      50.123850000000004     48.785449999999997     49.008699999999997
C      50.030050000000003     49.624250000000004     47.777899999999995
H      47.288650000000004     46.609750000000005     50.020199999999996
H      46.790350000000004     48.640550000000005     45.382399999999997
H      48.757450000000006     47.810450000000003     50.617600000000003
H      48.946350000000010     50.074550000000002     46.045600000000000
H      45.543150000000004     45.819149999999993     48.384400000000007
H      45.144850000000005     47.327950000000001     46.085299999999997
H      50.801950000000005     49.127650000000003     49.664399999999993
H      50.855149999999995     50.180850000000007     47.383800000000001
