18

C      47.499399999999987     47.980149999999988     48.591699999999996
C      48.467799999999997     48.538650000000004     47.571400000000004
C      47.262400000000000     48.807249999999996     49.745300000000000
C      49.208600000000004     49.669349999999994     47.779200000000003
C      46.766599999999997     46.898350000000001     48.258000000000003
C      48.254199999999997     47.933949999999996     46.321300000000008
C      48.072499999999991     49.887150000000005     49.936000000000007
C      49.197499999999991     50.131050000000002     49.028800000000004
C      46.910100000000000     46.229050000000001     47.061199999999999
C      47.477699999999999     46.835449999999994     45.915500000000002
H      46.460599999999999     48.571749999999994     50.515300000000011
H      49.849100000000000     50.202449999999999     47.211100000000002
H      45.938599999999994     46.752649999999996     49.031000000000006
H      48.722499999999997     48.750550000000004     45.677900000000008
H      48.125900000000001     50.183549999999997     51.094600000000000
H      50.061400000000006     50.871749999999999     49.198099999999997
H      46.585199999999993     45.128250000000001     47.044700000000006
H      47.162599999999998     46.666049999999998     44.905400000000000
