18

C      47.657649999999990     47.426049999999996     47.441949999999991
C      48.137550000000005     48.154250000000005     48.589850000000013
C      46.871950000000012     46.303249999999991     47.467350000000010
C      47.315250000000006     48.102049999999991     49.770650000000003
C      48.129650000000012     48.010649999999998     46.186149999999998
C      49.136450000000011     49.165849999999992     48.407550000000015
C      46.059849999999997     46.226550000000003     48.641750000000002
C      46.381650000000008     47.049650000000000     49.716549999999998
C      49.412450000000007     48.699649999999991     46.257549999999995
C      49.807750000000013     49.710449999999994     47.361149999999995
H      46.873550000000009     45.680549999999997     46.560749999999999
H      47.395650000000003     48.771450000000002     50.789050000000003
H      48.217350000000010     47.692449999999994     45.210949999999997
H      49.241650000000007     49.846350000000001     49.267650000000003
H      45.602750000000000     45.214150000000004     48.835449999999994
H      46.203850000000003     46.790649999999999     50.751250000000013
H      50.397250000000000     48.427449999999993     45.845749999999995
H      49.999750000000006     50.785849999999996     47.276550000000000
