5

C      48.109639999999992     48.040699999999994     48.241149999999990
H      47.607820000000004     48.059100000000001     47.215249999999997
H      47.136430000000004     47.725800000000000     48.552750000000003
H      48.863569999999996     47.167900000000003     48.066649999999996
H      48.723920000000000     48.832099999999997     48.784750000000003
