18

C      48.616149999999998     47.899899999999995     48.605349999999987
C      47.423550000000006     48.237600000000000     47.696550000000002
C      49.755150000000000     47.213000000000001     48.024249999999995
C      47.660950000000000     47.689800000000005     46.397949999999994
C      48.142650000000003     48.475300000000004     49.838149999999999
C      46.017250000000004     48.431300000000007     47.965050000000005
C      49.848250000000000     46.721800000000002     46.748850000000004
C      48.786950000000004     47.000000000000000     45.872050000000002
C      46.730950000000007     48.665199999999999     50.208249999999992
C      45.798850000000002     49.146900000000002     49.084150000000008
H      50.667550000000006     46.969300000000004     48.734949999999998
H      47.184750000000008     47.803500000000000     45.411550000000005
H      48.646650000000008     48.431300000000007     50.924250000000001
H      45.344850000000008     48.269000000000005     47.140450000000001
H      50.861149999999995     46.205500000000001     46.551549999999992
H      48.939850000000007     46.584200000000003     44.766949999999994
H      46.603850000000008     48.768500000000003     51.233050000000006
H      45.138850000000005     49.794499999999999     49.318449999999999
