44

C      49.292599999999986     48.886200000000002     47.128699999999995
C      48.677999999999997     48.903800000000004     45.738500000000002
C      47.582199999999993     44.457499999999996     48.298700000000004
C      46.623799999999996     44.615099999999998     47.100400000000000
C      49.290599999999998     47.731799999999993     48.085200000000007
C      47.887999999999991     47.736099999999993     45.526200000000003
C      48.253099999999989     45.593000000000004     48.691700000000004
C      46.999999999999993     45.646699999999996     46.162900000000000
C      48.692599999999999     46.505899999999997     47.695700000000002
C      47.911299999999997     46.673800000000000     46.408900000000003
C      49.929999999999993     50.000699999999995     47.681000000000004
C      49.791399999999996     51.438199999999995     47.059900000000006
C      49.094499999999996     51.279499999999999     45.760899999999999
C      48.697999999999993     50.198899999999995     45.077000000000005
C      46.763799999999989     43.707599999999999     49.257700000000007
C      45.513799999999989     42.945700000000002     48.953899999999997
C      44.947299999999998     43.198200000000000     47.707600000000006
C      45.472299999999990     44.046900000000008     46.761600000000001
C      50.464999999999989     50.125399999999999     49.074499999999993
C      50.990499999999997     51.238399999999999     49.761500000000005
C      50.800399999999996     52.484999999999999     49.213000000000001
C      49.990699999999990     52.469999999999999     47.967300000000002
C      50.608399999999989     48.832499999999996     49.806800000000003
C      50.084399999999995     47.602900000000005     49.363300000000002
C      49.913699999999992     46.435699999999997     50.192300000000003
C      49.049599999999998     45.433300000000003     50.097700000000010
C      47.465399999999995     43.589900000000000     50.504100000000001
C      48.300199999999990     44.613200000000006     50.959300000000006
H      47.255799999999994     48.038699999999992     44.687300000000000
H      46.244499999999995     45.695300000000003     45.156399999999998
H      48.920199999999994     52.360399999999998     45.462300000000006
H      48.108099999999993     50.389099999999999     44.170099999999998
H      45.042599999999993     42.108400000000003     49.539399999999993
H      44.087699999999998     42.546999999999997     47.461200000000012
H      45.168499999999995     43.967900000000000     45.743400000000001
H      49.641199999999998     53.647300000000001     47.698399999999999
H      51.150599999999997     48.588200000000001     50.658900000000010
H      50.335899999999995     46.373000000000005     51.213700000000010
H      46.929099999999991     42.753799999999998     51.090000000000003
H      48.880999999999993     44.645399999999995     51.829900000000002
H      51.912300000000002     50.053600000000003     51.067600000000006
H      51.742999999999995     53.891599999999997     50.276599999999995
O      51.682400000000001     51.112899999999996     50.889299999999999
O      51.156299999999987     53.666799999999995     49.595999999999997
