18

C      48.619699999999995     48.728099999999984     48.132849999999991
C      47.673600000000000     47.596100000000000     47.722749999999998
C      48.417600000000000     49.499599999999994     49.234749999999998
C      46.501400000000004     47.417600000000000     48.598049999999994
C      49.644300000000008     48.831099999999999     47.136350000000000
C      47.791400000000003     46.631799999999991     46.720649999999999
C      47.370200000000004     49.062499999999993     50.131949999999996
C      46.264000000000003     48.323399999999999     49.672249999999998
C      49.845700000000001     47.871199999999995     46.248449999999998
C      49.004899999999999     46.737099999999991     45.904150000000001
H      49.186199999999992     50.098599999999998     49.584750000000000
H      45.557000000000002     46.893299999999989     48.182650000000002
H      50.446900000000007     49.648899999999990     46.939650000000000
H      47.142600000000002     45.901400000000002     46.654449999999997
H      47.416100000000000     49.666199999999996     51.153050000000000
H      45.362000000000002     48.360300000000002     50.255649999999996
H      50.637999999999998     48.166899999999991     45.547849999999997
H      49.125200000000000     46.218799999999995     44.846950000000000
