88

C      48.496509999999986     42.530399999999993     49.401849999999996
C      47.896610000000003     41.236300000000000     50.038550000000001
C      44.480510000000002     43.521200000000000     46.877549999999999
C      44.115910000000007     42.078699999999998     46.920050000000003
C      47.922410000000006     43.430500000000009     48.559449999999998
C      46.536409999999997     41.156799999999997     49.560649999999995
C      45.689709999999998     44.088999999999999     47.425650000000005
C      44.921209999999995     41.258400000000002     47.595249999999993
C      46.560009999999998     43.187700000000007     48.114949999999993
C      46.063110000000002     41.760399999999997     48.337450000000004
C      49.586310000000005     43.048600000000000     50.217849999999999
C      50.151209999999999     42.256399999999999     51.343050000000005
C      49.644510000000004     40.934399999999997     51.960449999999994
C      48.576010000000004     40.532699999999998     51.160749999999993
C      43.858910000000002     44.339799999999997     45.944749999999999
C      42.676009999999998     43.843600000000002     45.463849999999994
C      42.075309999999995     42.527799999999999     45.776150000000001
C      42.865810000000003     41.570599999999999     46.317149999999998
C      49.976210000000002     44.309399999999997     50.332250000000002
C      50.790709999999997     44.971699999999998     51.393849999999986
C      51.536210000000004     43.926699999999997     52.110050000000001
C      51.207910000000005     42.604100000000003     52.192849999999993
C      48.507209999999993     44.790700000000001     48.286950000000004
C      49.315909999999995     45.312299999999993     49.392949999999999
C      52.574478000000006     44.138100000000009     53.196949999999987
C      48.493310000000001     45.137900000000002     46.880549999999999
C      49.150010000000002     46.340699999999998     46.189149999999998
C      50.881110000000000     49.917999999999999     46.227949999999993
C      51.133509999999994     49.071800000000003     47.435850000000002
C      52.292009999999998     54.084299999999999     48.967649999999992
C      52.499640000000007     53.019399999999997     50.029749999999993
C      51.039409999999997     51.347600000000000     46.365750000000006
C      51.486510000000003     49.601399999999998     48.678849999999997
C      51.333409999999994     53.488999999999990     47.990949999999998
C      52.245110000000004     51.663300000000000     49.804749999999999
C      51.290309999999998     51.990200000000002     47.668350000000004
C      51.623709999999996     51.084299999999999     48.711050000000000
C      50.468910000000001     49.207399999999993     45.032950000000000
C      50.570910000000005     47.652000000000001     44.825850000000003
C      50.761509999999994     46.811500000000002     46.020550000000000
C      51.235809999999994     47.576700000000002     47.260549999999995
C      52.782619000000004     55.325100000000006     48.902450000000002
C      53.894170000000010     55.573799999999999     49.790649999999999
C      54.161870000000008     54.449500000000000     50.618149999999986
C      53.558010000000017     53.244900000000001     50.883650000000003
C      50.360310000000005     49.984399999999994     43.967749999999995
C      50.584809999999997     49.089700000000001     42.777749999999997
C      50.510309999999997     47.028599999999997     43.595249999999993
C      50.411710000000006     52.039400000000001     45.264049999999997
C      50.097209999999997     51.470500000000001     43.998750000000001
C      51.835910000000005     48.784999999999997     49.865250000000003
C      52.101809999999993     47.379100000000001     49.600949999999997
C      51.878310000000006     46.875299999999996     48.298349999999999
C      49.794509999999995     52.346099999999993     42.775549999999996
H      45.795110000000001     40.549900000000001     50.213549999999998
H      46.060510000000001     45.166899999999998     47.190049999999999
H      44.632410000000000     40.203400000000002     47.564949999999996
H      50.137909999999998     40.543100000000003     52.926249999999996
H      48.096010000000000     39.539000000000001     51.343149999999994
H      44.072210000000005     45.463700000000003     45.738050000000001
H      42.239910000000002     44.455399999999997     44.556349999999995
H      41.121509999999994     42.175199999999997     45.359549999999999
H      42.379809999999999     40.599400000000003     46.523349999999994
H      50.857210000000002     46.061099999999996     51.655249999999995
H      51.755410000000005     41.774700000000003     52.666950000000000
H      53.408900000000010     44.866900000000001     52.838549999999998
H      48.607409999999994     46.385800000000003     45.334649999999996
H      48.036409999999997     44.594799999999999     46.062049999999999
H      49.060610000000004     47.277199999999993     46.884950000000003
H      49.718610000000005     46.395499999999998     49.271050000000002
H      50.710709999999999     54.106000000000002     47.396850000000001
H      52.945042000000008     50.535399999999996     50.314949999999996
H      51.458509999999997     45.886399999999995     45.855750000000000
H      52.258310000000002     56.294100000000000     48.406149999999997
H      54.537630000000007     56.460999999999999     49.869749999999996
H      54.878490000000006     54.708600000000004     51.216549999999998
H      53.546420000000005     52.736499999999992     51.996650000000002
H      50.661809999999996     49.921700000000001     42.208349999999996
H      50.308110000000006     45.892600000000002     43.732450000000000
H      50.389710000000001     53.109099999999998     45.372850000000000
H      49.708210000000001     53.355899999999998     43.336849999999998
H      52.198410000000003     49.116700000000002     50.835249999999988
H      52.095710000000004     45.768199999999993     47.964249999999993
H      52.685556000000012     46.585200000000000     50.207849999999993
H      50.542809999999996     52.356499999999997     41.816950000000006
H      48.678109999999997     52.201999999999998     42.323250000000002
N      50.665709999999997     47.845300000000002     42.499349999999993
O      52.725236000000017     43.498600000000010     54.183049999999994
