17

C      48.253299999999996     49.773499999999984     46.650949999999995
C      47.065899999999999     48.980999999999995     47.086049999999993
C      46.771299999999997     47.627099999999999     47.854250000000000
C      47.942800000000005     47.593999999999994     48.685449999999996
C      48.869999999999990     48.647599999999997     48.565149999999996
C      49.186400000000006     49.597899999999996     47.554049999999997
C      45.890600000000006     46.519700000000000     48.095049999999993
C      50.020599999999988     48.344200000000001     49.474849999999996
H      48.337299999999999     50.081500000000005     45.669750000000001
H      47.913200000000003     46.636600000000001     49.252949999999991
H      50.045199999999994     50.220200000000006     47.358849999999997
H      46.165899999999993     45.779799999999994     48.927050000000001
H      45.162300000000002     46.310099999999991     47.417650000000002
H      50.008600000000001     47.266199999999998     49.903950000000002
H      50.837699999999998     48.655900000000003     48.645750000000000
H      49.926199999999994     49.206599999999995     50.330249999999999
O      46.000699999999995     49.488000000000000     46.690849999999990
