42

C      48.291699999999992     45.871199999999995     49.919149999999995
C      46.913499999999999     48.959999999999994     46.670950000000005
C      48.400799999999997     50.419200000000004     51.212149999999994
C      47.220300000000002     46.143200000000007     48.997650000000007
C      48.917999999999999     46.801000000000002     50.881550000000004
C      46.849699999999999     47.639500000000012     46.942250000000001
C      48.295400000000008     49.093400000000003     51.772450000000006
C      47.079599999999999     50.002300000000005     47.675049999999999
C      48.362400000000001     50.629000000000005     49.870450000000005
C      47.352799999999995     47.497299999999996     48.442350000000005
C      48.272799999999997     48.109500000000011     50.902150000000006
C      47.578800000000001     49.772999999999996     49.041950000000000
C      47.598099999999995     48.392900000000004     49.479550000000003
C      48.559199999999997     44.640900000000002     50.352350000000001
C      47.875499999999995     43.514800000000001     49.952650000000006
C      47.011199999999995     43.558500000000002     48.800349999999995
C      47.134899999999995     44.853500000000004     48.152150000000006
C      47.145299999999999     45.064900000000002     46.724950000000007
C      46.814099999999996     46.358900000000006     46.222250000000003
C      46.827700000000000     49.030300000000011     45.173450000000003
C      47.049199999999999     50.388700000000007     44.869349999999997
C      47.247199999999999     51.266100000000009     46.999449999999996
C      46.466499999999996     47.949299999999994     44.219650000000001
C      46.515000000000001     46.742300000000000     44.788449999999997
C      49.095099999999995     51.697400000000002     49.133049999999997
C      47.134799999999998     52.337000000000003     47.981350000000006
H      48.833599999999997     51.234800000000007     51.817250000000001
H      49.908600000000000     46.596100000000007     51.352350000000001
H      48.699500000000000     48.880900000000004     52.789850000000001
H      46.421199999999999     52.092299999999994     48.805250000000001
H      48.020499999999998     42.469200000000001     50.381650000000008
H      46.630600000000001     42.711100000000002     48.291449999999998
H      46.861199999999997     44.430900000000001     46.009550000000004
H      46.972400000000000     50.668900000000008     43.849649999999997
H      46.143099999999997     48.380300000000005     43.210149999999999
H      46.091400000000000     45.925800000000002     44.233549999999994
H      48.976999999999997     51.840400000000002     48.035750000000007
H      49.483799999999995     43.929800000000007     51.777749999999997
H      47.024799999999999     53.530799999999999     47.588949999999997
N      47.210999999999999     51.408200000000001     45.657250000000005
O      49.574500000000008     52.643200000000007     49.705150000000003
O      49.684300000000000     44.598300000000002     51.136849999999995
