47

C      48.085549999999991     46.793124999999989     44.880099999999992
C      46.937649999999991     47.565424999999998     44.835399999999993
C      46.144949999999994     53.217495000000007     50.304400000000001
C      49.407749999999993     47.458925000000001     45.251999999999995
C      47.499150000000000     53.609065000000008     50.043999999999997
C      45.736649999999997     52.071075000000008     49.447599999999994
C      47.082650000000001     48.756425000000000     45.719799999999992
C      49.294349999999994     52.048065000000001     48.722999999999999
C      46.996949999999998     50.640429000000005     47.782100000000000
C      48.094549999999998     52.519825000000004     49.298999999999992
C      46.873449999999991     51.703835000000005     48.822699999999998
C      49.405149999999992     48.325224999999996     46.594600000000000
C      49.387050000000002     50.921115000000007     47.952900000000000
C      48.199050000000000     49.220224999999992     46.465399999999988
C      48.293449999999993     50.342183000000013     47.363299999999995
C      45.730249999999998     49.267225000000003     46.084899999999990
C      45.680049999999994     50.162967000000002     47.258699999999990
C      48.040049999999994     45.314624999999999     44.924399999999991
C      46.832650000000001     44.624724999999991     44.648399999999995
C      45.689650000000000     45.510624999999997     44.283299999999997
C      45.646049999999988     46.848424999999999     44.612799999999993
C      46.862549999999999     43.227025000000005     44.538599999999988
C      48.075849999999988     42.672024999999998     44.227499999999992
C      45.880649999999989     54.489725000000014     51.127600000000001
C      48.897949999999994     41.637025000000001     43.712499999999991
C      50.180749999999989     46.067824999999992     45.331299999999999
C      49.351549999999989     44.971524999999993     45.564799999999991
H      47.899749999999997     54.636495000000004     50.319699999999997
H      44.825449999999989     51.701335000000007     49.577100000000002
H      50.220549999999989     52.385305000000002     49.180899999999994
H      50.414649999999995     50.923855000000003     47.563400000000001
H      44.723050000000001     49.126825000000004     45.603999999999999
H      44.842549999999989     50.172776000000006     47.945099999999996
H      45.144849999999991     44.846025000000004     43.640900000000002
H      44.986949999999993     47.582725000000003     45.324900000000000
H      49.893049999999988     41.903825000000005     43.643000000000001
H      46.022549999999995     54.201155000000007     52.359099999999998
H      44.921549999999996     54.922585000000005     50.816299999999998
H      46.510149999999996     55.507775000000002     50.912499999999994
H      48.773749999999993     40.492224999999998     43.656899999999993
H      49.726549999999989     48.220525000000002     44.584299999999999
H      49.887749999999997     48.432624999999994     48.567099999999996
H      51.276949999999999     45.842125000000003     45.246499999999997
H      49.842050000000000     43.981625000000001     45.837400000000002
H      46.158349999999999     41.255724999999991     45.027799999999999
N      50.356749999999991     48.233825000000003     47.482500000000002
O      45.805250000000001     42.353124999999999     44.918300000000002
