6

C      48.300699999999985     48.515249999999995     47.984149999999985
C      47.430700000000002     47.425750000000001     48.104749999999989
H      48.665999999999997     48.876950000000001     46.906450000000000
H      47.251899999999999     47.123049999999999     47.090550000000000
H      49.110600000000005     48.711050000000007     48.634849999999993
H      46.889399999999995     47.371749999999999     49.093550000000000
