18

C      48.085502999999996     47.348749999999995     48.379399999999990
C      48.355622999999994     48.533550000000005     47.427999999999997
C      48.983903000000005     46.308549999999997     48.496499999999990
C      49.520293000000009     48.350949999999997     46.788499999999999
C      47.059843000000001     47.396349999999998     49.282599999999995
C      47.379603000000003     49.572249999999997     47.580300000000001
C      50.049743000000007     46.112650000000002     47.631700000000002
C      50.128013000000010     47.087050000000005     46.700400000000002
C      46.168533000000004     48.493750000000006     49.505699999999997
C      46.286333000000006     49.541049999999998     48.460999999999999
H      50.953502999999998     46.949449999999999     45.889400000000002
H      48.983232999999998     45.803049999999999     49.523999999999994
H      49.775563000000005     49.304849999999988     46.164499999999997
H      46.848163000000007     46.590550000000007     50.110599999999998
H      47.589233000000007     50.516049999999993     47.034399999999998
H      50.877863000000005     45.483950000000007     47.641199999999998
H      45.046497000000002     48.366349999999997     50.036900000000003
H      45.324003000000005     50.131450000000001     48.411700000000003
