8

C      47.536699999999996     48.379799999999989     47.252549999999992
C      47.826200000000000     47.618800000000007     48.449349999999995
H      47.444099999999999     46.574500000000000     48.433450000000001
H      48.920600000000000     47.625300000000010     48.559249999999999
H      47.079400000000000     49.425500000000000     47.346849999999996
H      47.207300000000004     48.103500000000011     49.303950000000000
H      48.517099999999999     48.772100000000009     46.696050000000000
H      47.401700000000005     47.368800000000007     46.750749999999996
