18

C      48.333499999999994     48.455599999999990     48.198399999999992
C      47.367500000000000     47.478499999999997     47.572400000000002
C      47.857300000000002     49.360700000000001     49.331800000000001
C      46.049300000000002     47.488699999999994     48.060800000000000
C      49.635999999999996     48.607899999999994     47.566400000000002
C      48.034900000000000     46.705599999999997     46.534599999999998
C      46.536799999999999     49.344199999999994     49.708799999999997
C      45.664800000000000     48.524200000000000     48.967799999999997
C      50.188699999999997     47.954999999999998     46.458399999999997
C      49.250600000000006     46.954099999999997     46.009100000000004
H      48.478999999999999     50.157000000000004     49.926299999999998
H      45.404800000000002     46.499599999999994     47.833300000000008
H      50.299400000000006     49.152700000000003     48.221100000000007
H      47.390500000000003     45.842999999999996     46.084800000000001
H      46.079800000000006     49.836199999999998     50.730400000000003
H      44.507700000000000     48.589099999999995     48.813500000000005
H      51.492300000000000     48.057199999999995     45.986500000000007
H      49.575500000000005     46.187700000000000     45.269599999999997
