18

C      48.671599999999991     48.377749999999985     47.775849999999991
C      47.758499999999998     47.363155999999996     48.176449999999996
C      48.774699999999996     48.635349999999995     46.366750000000003
C      46.616599999999998     46.888216999999997     47.407149999999994
C      49.408400000000000     49.334949999999992     48.522849999999998
C      47.700499999999998     47.177744999999994     49.607750000000003
C      47.941899999999997     47.869169999999997     45.467949999999995
C      46.700099999999999     46.978139999999996     45.999850000000002
C      49.217900000000000     48.901449999999997     49.815149999999996
C      48.396099999999997     47.900799999999997     50.536349999999999
H      49.456800000000001     49.514549999999986     45.985349999999997
H      46.074900000000000     46.189459999999997     47.637250000000002
H      50.119599999999998     50.124839999999992     48.117250000000006
H      47.192399999999999     45.875160000000008     50.178049999999999
H      47.626800000000003     47.991129999999991     44.432049999999997
H      45.880400000000002     46.471360000000018     45.324350000000003
H      49.905000000000001     49.520789999999991     50.529350000000001
H      48.146799999999999     47.917989999999996     51.567950000000003
