26

C      48.715899999999998     48.333127999999988     47.746499999999990
C      47.855899999999991     48.377697999999995     46.559300000000000
C      46.993700000000004     44.344898000000001     49.849199999999996
C      46.069699999999997     44.416908000000006     48.748499999999993
C      48.766199999999998     47.116947999999994     48.559500000000000
C      46.626099999999994     47.569248000000002     46.772800000000004
C      48.032499999999999     45.200357999999994     49.658600000000007
C      45.671499999999995     45.321827999999996     47.724000000000004
C      47.762299999999996     46.172917999999996     48.558199999999999
C      46.701300000000003     46.254688000000002     47.552499999999995
C      49.615099999999998     49.421667999999997     47.912999999999997
C      49.565100000000001     50.517037999999999     47.138199999999998
C      48.926699999999997     50.354478000000000     45.794499999999999
C      47.879300000000001     49.341618000000011     45.587400000000002
C      50.873300000000000     51.414478000000003     47.410499999999999
H      46.881799999999998     43.472421999999995     50.867199999999997
H      45.412700000000001     43.508120000000005     48.980100000000000
H      49.749499999999998     46.763317999999998     48.723199999999999
H      48.846599999999995     45.097307999999998     50.323700000000002
H      44.668300000000002     45.403238000000002     47.299599999999998
H      50.280199999999994     49.589098000000007     48.863699999999994
H      48.612700000000004     51.521698000000001     45.483699999999999
H      46.827699999999993     49.726467999999997     45.132800000000003
H      51.331699999999998     50.503388000000001     47.774200000000000
O      51.067399999999992     52.527578000000005     47.105400000000003
O      45.572999999999993     48.032527999999999     46.474499999999999
