18

C      47.667859999999990     48.230649999999990     48.454379999999986
C      48.480649999999997     48.042550000000006     47.262229999999995
C      46.187730000000002     48.245750000000001     48.729099999999995
C      47.521300000000004     48.035950000000000     46.229909999999997
C      48.275879999999994     48.018349999999998     49.775859999999987
C      49.792420000000000     47.672650000000004     47.083250000000000
C      45.651769999999999     48.492949999999993     47.451919999999994
C      46.181580000000004     48.471149999999994     46.124399999999994
C      49.663630000000005     47.890950000000004     49.512079999999997
C      50.452710000000003     47.423349999999999     48.248619999999995
H      45.589810000000000     48.155850000000001     49.555109999999992
H      47.884639999999997     47.630750000000006     45.215139999999998
H      47.845759999999999     48.215549999999993     50.784860000000002
H      50.399409999999996     47.460049999999995     46.240009999999998
H      44.567140000000002     48.635149999999996     47.843819999999994
H      45.709910000000001     48.375249999999994     45.220939999999999
H      50.433880000000002     48.303749999999994     50.297779999999996
H      51.432859999999998     47.364850000000004     48.632140000000000
