18

C      48.281649999999985     48.585999999999999     48.033049999999989
C      47.999649999999995     47.342100000000002     47.386049999999990
C      48.250949999999996     48.630499999999998     49.492449999999998
C      48.064749999999997     46.319100000000006     48.397050000000000
C      47.896049999999995     49.773499999999999     47.257950000000001
C      47.600249999999996     47.188199999999995     45.969050000000003
C      48.226350000000004     47.577299999999994     50.389149999999994
C      48.283549999999998     46.391300000000001     49.774949999999997
C      47.639749999999999     49.704099999999997     45.961149999999996
C      47.528550000000003     48.413499999999999     45.267749999999999
H      48.048449999999995     49.648700000000005     49.883149999999993
H      47.977049999999998     45.290499999999994     47.854549999999996
H      48.090849999999996     50.708500000000001     47.692550000000004
H      47.660850000000003     48.379800000000003     44.242550000000001
H      48.548250000000003     47.474699999999999     51.757449999999999
H      48.385449999999999     45.424300000000002     50.341450000000002
H      47.451749999999997     50.709500000000006     45.387049999999995
H      48.023050000000005     46.394400000000005     45.327249999999999
