18

C      47.282099999999986     47.823949999999996     47.787149999999990
C      48.559300000000000     48.363350000000004     47.730249999999998
C      46.774999999999999     46.797050000000006     46.921449999999993
C      49.432499999999997     47.779649999999997     46.722149999999992
C      46.430399999999999     48.311950000000003     48.807850000000002
C      49.114500000000000     49.558150000000005     48.394350000000003
C      47.743500000000004     46.056249999999999     46.301449999999996
C      49.039200000000001     46.489150000000002     46.143949999999997
C      46.945299999999996     49.338749999999997     49.677949999999996
C      48.156299999999995     50.041850000000004     49.349750000000000
H      45.801099999999998     46.588450000000002     46.993649999999995
H      50.409799999999997     48.231450000000002     46.251649999999998
H      45.590200000000003     47.554650000000002     49.032249999999998
H      49.974100000000000     50.031349999999996     48.070549999999997
H      47.494899999999994     45.241549999999997     45.685249999999996
H      49.875200000000000     46.142549999999993     45.460949999999997
H      46.390599999999999     49.629650000000005     50.539050000000003
H      48.543799999999997     50.758450000000003     49.979249999999993
