18

C      47.531599999999990     47.653899999999993     48.252499999999991
C      48.486399999999996     48.047699999999999     47.275599999999997
C      46.145099999999999     47.985700000000001     48.244199999999999
C      48.185399999999987     48.828499999999998     46.199100000000001
C      47.783899999999996     46.484900000000003     49.173000000000002
C      49.781999999999996     47.461300000000001     47.585499999999996
C      45.844499999999996     49.099899999999998     47.378999999999998
C      46.941499999999998     49.437199999999997     46.504300000000001
C      49.023999999999987     45.952599999999997     49.438199999999995
C      50.020799999999994     46.583499999999994     48.554599999999994
H      45.395499999999998     47.435899999999997     48.679599999999994
H      48.879099999999994     49.057899999999997     45.478600000000000
H      47.002399999999994     46.162299999999995     49.931399999999996
H      50.672999999999988     48.177100000000003     47.351699999999994
H      44.821299999999994     49.497899999999994     47.346899999999998
H      46.484299999999998     50.371100000000006     45.783299999999997
H      49.105599999999995     45.628899999999994     50.521400000000000
H      51.178700000000006     46.499599999999994     48.844700000000003
