5

C      48.288899999999998     48.144250000000000     48.128449999999987
H      48.423999999999992     48.938149999999993     48.844349999999999
H      48.846900000000005     48.429749999999999     47.155650000000001
H      48.465599999999995     47.061850000000007     48.543150000000004
H      47.153099999999995     47.996549999999999     47.996050000000004
