18

C      48.648984999999996     48.296349999999990     48.535699999999984
C      47.646085000000006     47.277450000000002     48.257700000000000
C      48.295485000000006     49.330349999999996     49.450699999999998
C      46.238185000000001     47.335750000000004     48.667000000000002
C      49.755585000000004     48.283649999999994     47.632599999999996
C      47.714285000000004     46.290449999999993     47.066999999999993
C      46.979085000000005     49.270049999999998     50.069599999999994
C      46.024885000000005     48.244349999999997     49.689999999999998
C      49.847585000000002     47.144649999999999     46.862300000000005
C      48.857184999999994     46.123350000000002     46.465599999999995
H      48.726885000000003     49.988349999999997     49.980400000000003
H      45.472785000000002     46.783749999999998     48.332599999999999
H      50.590184999999998     48.907650000000004     47.806500000000000
H      46.792385000000003     45.760549999999995     46.952200000000005
H      46.762185000000002     50.408150000000006     50.507400000000004
H      45.091214999999998     48.500250000000008     50.230000000000004
H      50.908785000000002     46.972350000000006     46.437100000000001
H      49.029485000000001     45.591849999999994     45.492599999999996
