6

C      48.359349999999992     48.120950000000001     47.855999999999995
H      49.376450000000006     48.206550000000007     47.902700000000003
H      47.914850000000001     49.205050000000000     48.296600000000005
H      48.298349999999999     47.715149999999994     46.969799999999999
H      46.623549999999994     46.794950000000000     48.949800000000003
S      48.038750000000007     46.858950000000007     49.030200000000001
