18

C      48.538404999999990     47.586999999999989     47.417649999999995
C      47.790205000000000     48.207100000000004     48.580149999999996
C      49.888971000000005     47.547699999999992     47.584650000000003
C      48.608004999999991     48.566600000000001     49.757150000000003
C      47.508505000000000     47.287599999999998     46.370849999999997
C      46.345204999999993     48.333399999999990     48.779050000000005
C      50.695525000000004     47.834199999999996     48.612850000000002
C      50.112995000000005     48.323999999999991     49.816350000000007
C      46.217904999999988     47.594299999999997     46.638950000000001
C      45.400205000000000     48.262099999999997     47.728649999999995
H      50.336155000000005     46.885999999999996     46.664949999999997
H      48.133304999999993     49.187000000000005     50.373849999999997
H      47.919404999999998     46.812999999999995     45.375149999999998
H      45.891704999999988     48.763299999999994     49.786750000000005
H      51.797595000000001     47.942099999999996     48.615850000000002
H      50.788434999999993     48.746099999999991     50.624850000000002
H      45.386404999999996     47.787399999999984     45.972749999999998
H      44.202404999999999     48.323399999999992     47.877350000000000
