9

C      48.690899999999992     47.136014999999993     47.904299999999992
C      47.573700000000002     49.212367000000008     48.170099999999998
C      47.472399999999993     47.959614999999999     48.134399999999992
H      49.461799999999997     46.820014999999998     48.740400000000001
H      49.499200000000002     47.915215000000003     47.325699999999998
H      48.340199999999996     49.890785000000008     47.972200000000008
H      46.703899999999997     49.852746000000003     48.558799999999998
H      48.494100000000003     46.109214999999992     47.259599999999999
H      46.500799999999998     47.466014999999999     48.089300000000001
