56

C      44.877634999999991     46.137649999999994     49.466957999999998
C      48.495444999999997     49.426150000000000     49.949358000000004
C      46.267754999999994     46.452950000000001     49.267848000000001
C      48.038824999999989     48.054849999999995     49.663257999999999
C      43.964995000000002     46.915250000000000     50.358928000000006
C      47.444744999999998     50.361550000000001     50.213808000000000
C      44.072714999999995     49.522749999999995     51.279558000000002
C      44.969584999999995     50.644150000000003     51.158017999999998
C      46.682265000000001     47.819849999999995     49.511368000000004
C      44.575054999999999     48.092849999999999     50.776358000000002
C      46.159364999999994     49.973750000000003     50.641227999999998
C      45.818304999999995     48.620449999999998     50.365158000000001
C      44.500185000000002     45.011350000000000     48.544938000000002
C      45.344715000000008     44.094149999999999     47.786408000000002
C      46.717794999999995     44.235350000000004     47.987028000000002
C      47.092275000000001     45.379150000000003     48.776718000000002
C      48.636894999999996     45.579450000000001     48.711018000000003
C      48.957614999999990     46.841050000000003     49.440098000000006
C      49.907215000000001     49.538850000000004     50.113218000000003
C      50.274315000000001     50.975249999999996     50.151117999999997
C      49.316514999999995     51.957050000000002     50.288488000000001
C      47.964484999999996     51.703650000000003     50.595598000000003
C      50.794015000000002     48.309750000000001     49.955377999999996
C      50.366315000000000     46.954749999999997     49.886737999999994
C      44.492984999999997     43.374850000000002     46.759878000000000
C      44.367754999999995     43.899149999999999     45.403128000000002
C      52.624314999999996     47.749850000000002     51.577758000000003
C      52.029814999999999     48.633649999999996     50.548008000000010
C      44.827084999999997     42.883050000000004     44.405398000000005
C      42.685804999999995     49.722149999999992     51.530047999999994
C      44.605334999999997     52.137350000000005     51.294038000000000
H      43.004215000000002     46.570749999999997     50.767828000000009
H      47.557784999999996     43.699950000000001     47.280538000000000
H      49.471014999999994     44.876349999999995     49.205098000000007
H      51.233714999999997     51.492250000000006     50.448708000000003
H      47.357704999999996     52.630550000000007     50.614438000000007
H      45.100295000000003     44.803049999999999     45.321628000000004
H      43.394604999999999     44.569350000000000     45.210338000000000
H      49.470114999999993     53.880850000000002     51.161728000000004
H      42.785964999999997     44.114849999999997     48.793758000000004
H      52.083015000000003     46.657249999999998     51.728798000000012
H      53.913415000000001     47.887450000000001     51.521338000000000
H      52.459015000000001     47.984349999999999     52.669128000000001
H      51.062115000000006     46.116450000000000     50.096528000000006
H      52.227414999999993     49.641349999999996     50.749068000000008
H      45.918684999999996     42.527049999999996     44.690888000000001
H      44.273294999999997     42.119149999999998     44.441918000000001
H      44.545304999999999     43.022150000000003     43.330871999999999
H      44.205714999999998     52.467949999999995     50.379148000000001
H      42.086584999999999     48.908149999999999     51.289627999999993
H      42.213535000000000     50.635150000000003     51.171678000000000
H      43.879604999999998     52.288750000000000     52.147478000000007
H      45.237834999999997     52.695550000000004     51.970547999999994
O      43.743665000000000     42.427050000000001     46.919578000000001
O      49.776015000000001     53.254049999999999     50.487408000000002
O      43.101405000000000     45.010449999999999     48.748538000000003
