18

C      48.467599999999990     47.498049999999992     47.901649999999997
C      47.232300000000002     48.056049999999999     48.728050000000003
C      49.513500000000001     47.136949999999999     48.673950000000005
C      47.271200000000000     48.965549999999993     49.801850000000002
C      48.421300000000002     46.985950000000003     46.514750000000006
C      46.275500000000001     48.463449999999995     47.895650000000003
C      49.585400000000000     47.896149999999992     49.817150000000005
C      48.622500000000002     48.845849999999999     50.255550000000014
C      47.129800000000003     47.132149999999996     45.926550000000006
C      46.209899999999998     47.958449999999999     46.556950000000001
H      50.123399999999997     46.358850000000004     48.106049999999996
H      46.494799999999998     49.524549999999991     50.202650000000006
H      49.452300000000001     46.600250000000003     46.077450000000006
H      45.449300000000001     49.290449999999993     48.229650000000007
H      50.682499999999997     47.732249999999993     50.333850000000012
H      49.371000000000002     49.641149999999996     50.883849999999995
H      46.462200000000003     46.630650000000003     45.116150000000005
H      45.317500000000003     47.973749999999995     45.981150000000000
