35

C      51.387084999999985     48.946024999999999     46.819149999999986
C      50.495884999999994     49.776525000000007     47.622649999999993
C      52.633785000000003     49.371525000000005     46.363349999999997
C      51.019185000000000     51.009725000000003     48.128550000000004
C      50.777584999999995     47.636725000000006     46.515349999999998
C      49.375785000000000     49.373125000000002     48.427849999999992
C      53.103767000000005     50.556624999999997     46.869850000000000
C      52.259184999999995     51.363225000000000     47.768649999999994
C      49.573784999999994     47.464425000000006     46.947450000000003
C      48.861584999999998     48.126625000000004     48.037549999999996
C      44.846784999999990     46.890825000000007     49.125150000000005
C      45.730384999999991     46.025925000000001     48.396249999999995
C      45.506484999999991     47.810625000000002     49.795550000000006
C      47.167084999999993     46.406525000000002     48.314650000000000
C      43.435584999999996     46.338325000000005     49.489050000000006
C      45.110884999999989     44.891725000000001     47.567049999999995
C      46.847985000000001     48.361425000000004     49.652749999999997
C      47.746085000000001     47.713225000000001     48.848050000000001
C      42.960884999999998     45.223825000000005     48.743049999999997
C      43.860684999999997     44.601525000000002     47.825850000000003
H      48.797684999999994     50.199825000000004     48.935249999999996
H      53.319893999999998     48.643925000000003     45.602249999999998
H      50.573784999999994     51.737725000000012     48.763049999999993
H      51.348684999999996     47.085325000000005     45.779849999999996
H      53.919615000000000     50.966224999999994     46.238349999999997
H      52.761657000000007     52.387924999999996     47.870750000000001
H      48.944084999999994     46.597825000000000     46.702650000000006
H      44.983484999999995     48.530025000000002     50.397750000000002
H      47.781984999999999     45.859125000000006     47.678650000000005
H      42.911684999999999     46.559825000000004     50.314250000000001
H      45.873584999999999     44.326225000000001     46.950450000000004
H      47.071084999999989     49.340625000000003     50.164349999999999
H      47.419784999999997     45.759725000000003     49.174949999999995
H      42.080385000000000     44.909325000000003     49.325149999999994
H      43.540585000000000     43.612075000000004     47.455349999999996
