18

C      48.143249999999995     47.252150000000000     47.668299999999988
C      47.462549999999993     48.558949999999996     48.293799999999997
C      47.124150000000000     46.167950000000005     47.475400000000000
C      46.133649999999989     48.797750000000008     48.741599999999998
C      49.482649999999992     47.497050000000002     48.009200000000000
C      48.001350000000002     49.835850000000008     48.492299999999993
C      45.794950000000000     46.502250000000004     47.806499999999993
C      45.268850000000000     47.833050000000000     48.173899999999996
C      50.048850000000002     48.886449999999996     48.276499999999992
C      49.425049999999985     49.939049999999995     48.711599999999997
H      47.315349999999995     45.135050000000007     46.847299999999997
H      45.973349999999996     49.863249999999994     48.594099999999990
H      49.987049999999996     46.513350000000003     48.288400000000003
H      47.230949999999993     50.721350000000001     48.824199999999998
H      45.008249999999990     45.955349999999996     47.689000000000000
H      44.943049999999999     48.697450000000003     47.423099999999998
H      51.056950000000001     48.691350000000000     48.537599999999991
H      49.852749999999986     50.864949999999993     49.152700000000003
