6

C      47.729699999999994     47.599299999999992     48.628249999999994
C      48.434500000000007     48.530299999999997     47.780750000000005
H      47.654900000000005     46.445099999999996     48.551350000000006
H      46.943300000000001     48.156400000000005     49.160149999999994
H      49.056699999999999     48.535399999999996     46.839850000000006
H      48.395500000000006     49.554900000000004     48.027750000000005
