6

C      48.372799999999991     47.508249999999990     48.444299999999984
C      47.708699999999993     48.390750000000004     47.559999999999995
H      48.818600000000004     47.893250000000002     49.323000000000000
H      48.113399999999999     46.496950000000005     47.977600000000002
H      47.578599999999994     49.503049999999995     47.669999999999995
H      47.181399999999996     47.878849999999993     46.677000000000000
