25

C      47.074549999999988     44.931399999999996     50.123849999999990
C      46.684950000000001     44.044600000000003     49.020550000000000
C      49.604150000000004     46.487099999999998     48.627150000000000
C      47.777850000000001     48.429900000000004     48.563650000000003
C      47.530850000000001     48.738200000000006     47.309849999999997
C      48.270449999999997     47.145600000000002     49.079050000000002
C      47.173950000000005     47.935200000000009     46.160449999999997
C      47.576650000000001     49.197500000000005     49.655949999999997
C      47.021850000000001     50.054400000000001     47.078949999999999
C      47.241849999999999     46.531400000000005     49.821449999999999
C      46.869749999999996     50.412400000000005     49.433950000000003
C      46.982650000000007     51.015400000000000     48.126950000000001
H      46.408249999999995     47.299700000000001     46.675750000000001
H      47.472949999999997     44.288200000000003     51.042549999999999
H      45.537149999999997     43.984499999999997     49.002350000000000
H      46.871150000000000     44.260199999999998     48.009250000000002
H      49.439650000000000     45.372300000000010     48.835250000000002
H      49.945950000000011     46.573800000000006     47.578850000000003
H      50.462850000000003     46.560500000000005     49.241250000000001
H      46.878749999999997     48.508200000000002     44.957450000000001
H      47.630049999999997     48.870400000000004     50.665950000000002
H      46.667749999999998     50.286000000000001     46.116950000000003
H      46.167550000000006     46.717400000000012     49.968950000000000
H      46.338549999999998     50.871400000000008     50.356949999999998
H      46.511449999999996     52.015500000000003     48.301949999999998
