5

C      47.836249999999993     47.988249999999987     47.828229999999991
H      48.912849999999999     47.729450000000000     47.384219999999999
H      47.853050000000003     48.738550000000004     48.753760000000007
H      47.886150000000008     47.261449999999996     48.877310000000001
H      47.087150000000001     48.137649999999994     47.122689999999999
