45

C      50.967499999999987     48.723649999999992     48.473949999999988
C      49.991700000000002     49.644649999999992     47.992519999999999
C      43.163999999999994     44.231749999999998     47.086119999999994
C      43.338299999999997     45.644849999999998     46.908829999999995
C      50.556800000000003     47.368350000000000     48.778050000000007
C      48.565099999999994     49.281649999999999     47.977220000000003
C      44.273199999999996     43.451549999999997     47.558880000000002
C      44.478000000000002     46.313949999999998     46.690100000000001
C      48.981900000000003     45.418950000000002     48.624600000000001
C      46.771499999999996     43.761749999999999     48.169049999999999
C      46.978599999999993     47.512149999999998     47.589860000000002
C      49.230699999999992     46.821550000000002     48.512969999999996
C      48.284100000000002     47.871350000000000     48.188760000000002
C      45.564900000000002     44.059649999999998     47.512320000000003
C      47.676499999999997     44.872650000000000     48.365520000000004
C      45.671500000000002     45.481349999999999     46.918040000000005
C      46.846700000000006     46.035550000000001     47.647120000000001
C      44.772799999999997     47.801249999999996     46.864999999999995
C      46.003499999999995     48.429850000000002     47.354339999999993
C      46.389999999999993     49.889849999999988     47.573509999999999
C      47.652600000000000     50.433050000000001     47.651899999999998
C      52.300099999999993     48.924349999999997     48.519570000000002
C      52.706700000000005     50.210349999999998     47.991360000000000
C      51.752800000000001     51.320250000000009     47.976870000000005
C      50.364600000000003     50.990649999999995     47.936689999999999
C      49.385100000000001     52.040950000000002     47.886369999999999
C      48.084099999999999     51.770649999999996     47.607349999999997
C      43.855499999999999     48.897550000000003     46.817530000000005
C      52.005500000000005     52.768450000000001     48.276730000000001
H      42.054499999999997     43.667650000000002     47.092290000000006
H      42.438399999999994     46.341450000000002     46.604870000000005
H      51.209299999999992     46.556550000000001     48.780240000000006
H      44.279599999999995     42.445349999999998     47.635170000000002
H      49.716199999999994     44.710949999999997     48.260000000000005
H      47.213699999999996     42.748049999999999     48.513959999999997
H      45.744499999999995     50.677149999999990     47.405919999999995
H      53.685799999999993     50.530450000000009     47.596419999999995
H      49.451299999999996     53.103249999999996     47.878270000000001
H      47.500999999999998     52.649749999999990     47.549890000000005
H      53.945500000000003     48.304249999999996     49.108009999999993
H      44.001799999999996     49.762350000000005     47.534189999999995
H      42.929499999999997     48.528549999999996     46.695930000000004
H      52.078600000000002     52.784950000000002     49.395129999999995
H      51.132500000000000     53.554650000000002     47.841819999999998
O      53.211499999999994     47.902650000000001     48.617920000000012
