19

C      47.692849999999993     48.970899999999993     48.620049999999999
C      47.645620000000008     47.583500000000001     48.322649999999996
C      47.405370000000005     49.532499999999999     49.991649999999993
C      47.180949999999996     46.652199999999993     49.286349999999999
C      48.182429999999997     49.548199999999994     47.419049999999999
C      47.673240000000007     47.533999999999992     46.763549999999995
C      47.163350000000008     48.617400000000004     50.983649999999997
C      47.262929999999997     47.160299999999992     50.616649999999993
C      47.951170000000005     49.419200000000004     44.847750000000005
C      48.044060000000002     48.816199999999995     46.236450000000005
H      47.169260000000008     50.620599999999996     50.200649999999996
H      47.336790000000008     45.369100000000003     49.417349999999999
H      48.321020000000004     50.630899999999997     47.316549999999992
H      47.498080000000002     46.696799999999996     46.155749999999998
H      47.298150000000007     48.991399999999999     52.027349999999998
H      47.396960000000007     46.384399999999999     51.378550000000004
H      47.884320000000002     48.568200000000004     43.972650000000002
H      48.885739999999998     50.089399999999998     44.832549999999998
H      47.114260000000002     49.852199999999996     44.872150000000005
