34

C      47.660999999999994     48.926384999999982     48.344799999999992
C      48.778900000000000     49.130285000000001     47.670400000000001
C      49.198200000000000     44.751694999999998     50.470000000000006
C      50.721799999999995     45.274095000000003     50.395800000000001
C      47.196700000000000     47.824394999999996     49.190800000000003
C      49.682699999999997     47.802705000000003     47.616000000000000
C      48.152899999999988     45.731075000000004     50.352299999999993
C      50.741600000000005     46.382125000000002     49.367200000000004
C      48.240399999999994     46.853475000000003     49.574999999999996
C      49.576299999999996     47.050384999999991     48.969299999999997
C      46.663499999999999     49.867784999999998     48.227399999999996
C      46.810199999999995     50.876085000000003     47.392900000000004
C      47.936399999999999     51.079584999999994     46.562300000000000
C      48.932899999999997     50.082284999999999     46.583599999999997
C      46.077599999999997     48.410584999999998     49.974899999999998
C      45.478299999999997     47.717005000000000     50.726800000000004
C      45.674599999999998     49.773885000000007     49.187700000000000
C      48.908799999999999     43.620544999999993     51.195799999999998
C      48.348199999999991     52.002785000000003     45.382500000000000
H      48.807600000000008     47.405415000000005     46.963500000000003
H      47.093399999999995     45.776524999999992     50.418500000000002
H      51.575899999999997     47.012635000000003     48.896300000000004
H      46.099999999999994     51.768484999999998     47.321599999999997
H      49.886499999999998     50.202984999999998     46.305799999999998
H      44.416300000000000     47.654754999999994     50.625499999999995
H      46.181799999999996     47.756444999999999     51.616199999999999
H      44.826799999999999     50.466185000000010     49.498799999999996
H      47.940700000000007     43.524524999999997     51.675400000000003
H      49.865899999999996     42.915414999999996     51.497400000000006
H      49.448699999999988     51.802284999999998     44.872399999999999
H      47.992999999999995     51.410584999999998     44.324599999999997
H      48.128000000000000     53.084585000000004     45.509999999999998
H      50.784499999999994     47.825344999999999     47.229599999999998
O      51.583700000000000     44.785794999999993     50.994099999999996
