18

C      48.171514999999985     48.259149999999991     48.649399999999993
C      47.899934999999999     47.693950000000008     47.323700000000002
C      49.619415000000004     48.004750000000008     49.069499999999991
C      49.051445000000001     47.198250000000009     46.414000000000001
C      47.149484999999999     48.713550000000005     49.481099999999998
C      46.506275000000002     47.555650000000007     47.199300000000001
C      50.700464999999994     47.851649999999999     48.211799999999997
C      50.236345000000000     47.256750000000004     46.777600000000000
C      45.787984999999992     48.929949999999998     48.946800000000003
C      45.421634999999995     47.987050000000004     48.028100000000002
H      49.937265000000011     48.079150000000006     50.106800000000007
H      48.639144999999999     46.258350000000000     45.751199999999997
H      47.770695000000003     49.290050000000001     50.248800000000003
H      46.090045000000003     46.899350000000005     46.452100000000002
H      51.854905000000002     47.897650000000006     48.140900000000002
H      51.113415000000003     46.877950000000006     46.398800000000001
H      45.079274999999996     49.741650000000000     49.202500000000001
H      44.145094999999998     47.922750000000001     47.759500000000003
