18

C      47.688299999999991     48.130099999999992     48.550749999999994
C      48.363900000000001     48.075499999999998     47.325250000000004
C      48.220500000000001     47.383699999999997     49.807049999999997
C      49.462800000000001     47.167800000000000     47.306950000000001
C      46.488299999999995     48.933499999999995     48.633450000000003
C      48.090399999999988     48.859600000000000     46.185850000000002
C      49.064099999999996     46.366599999999998     49.618650000000002
C      49.714100000000002     46.269799999999996     48.297350000000002
C      46.201699999999995     49.623300000000000     47.498950000000001
C      46.916499999999999     49.573499999999996     46.307949999999998
H      47.746399999999994     47.400899999999993     50.804150000000000
H      50.142099999999999     46.559100000000001     46.553850000000004
H      45.883199999999995     48.940799999999996     49.612550000000006
H      48.459199999999996     48.359200000000001     45.303150000000002
H      49.341299999999990     45.724599999999995     50.474049999999998
H      50.525300000000001     45.563000000000002     48.202649999999998
H      45.474699999999999     50.436999999999998     47.575450000000004
H      46.440599999999996     50.367800000000003     45.195850000000000
