18

C      48.643099999999990     48.060239999999993     47.668074999999995
C      47.160499999999999     48.065400000000004     47.744624999999999
C      49.665399999999991     47.058079999999997     47.711384999999993
C      46.581400000000002     46.786970000000004     47.688905000000005
C      49.273499999999999     49.352800000000009     47.482435000000002
C      46.331599999999995     49.146999999999998     47.992625000000004
C      48.989999999999995     45.790529999999997     47.728515000000002
C      47.530699999999996     45.743000000000002     47.401225000000004
C      48.638300000000001     50.541699999999999     47.961995000000002
C      47.170500000000004     50.338900000000002     48.216275000000010
H      50.655200000000008     47.316250000000004     47.565375000000003
H      45.344799999999992     46.596740000000004     47.635925000000000
H      50.470900000000000     49.471899999999998     47.292505000000006
H      45.402299999999997     49.069299999999991     48.554104999999993
H      49.413799999999995     44.764809999999997     47.587205000000004
H      47.556799999999996     44.630200000000002     47.569875000000003
H      49.056899999999999     51.172100000000000     48.707494999999994
H      46.501400000000004     51.369799999999998     48.294924999999992
