18

C      48.619949999999989     48.122099999999996     47.298499999999997
C      47.341650000000001     47.772400000000005     48.129500000000007
C      49.063249999999996     49.414200000000008     46.899400000000000
C      46.873350000000002     48.790900000000008     48.975000000000001
C      49.338149999999999     47.063300000000005     46.626800000000003
C      46.803950000000000     46.542500000000004     47.622900000000001
C      48.800550000000001     50.368200000000002     47.911799999999999
C      47.905050000000003     49.846600000000009     48.815700000000007
C      49.002650000000003     45.619900000000001     46.768500000000003
C      47.813550000000006     45.427500000000009     47.451200000000000
H      50.012649999999994     49.736400000000003     46.095800000000004
H      46.260050000000007     48.776400000000010     49.913399999999996
H      50.351550000000003     47.379100000000008     46.474900000000005
H      45.648449999999997     46.664900000000003     47.595399999999998
H      49.258650000000003     51.275700000000001     48.114400000000003
H      48.214449999999999     50.571399999999997     49.702500000000001
H      49.590249999999997     45.016900000000007     46.086600000000004
H      47.830349999999996     44.724299999999999     48.280000000000001
