18

C      48.795949999999991     48.197899999999990     47.702301999999996
C      47.892949999999999     48.546299999999995     48.607975000000010
C      48.339550000000003     48.491700000000002     46.276225000000018
C      46.993150000000000     49.585199999999993     48.310006000000016
C      49.584649999999996     47.030799999999999     47.823221000000004
C      47.910250000000005     47.970499999999994     50.006985000000007
C      47.304349999999999     49.389400000000002     45.906525000000023
C      46.575749999999999     49.947600000000001     46.972425000000023
C      49.348349999999996     46.417600000000000     49.011685000000007
C      48.413849999999996     46.729099999999995     50.118615000000005
H      48.978750000000005     47.729799999999997     45.799225000000021
H      46.622249999999994     49.676099999999998     49.234885000000006
H      47.280950000000004     48.612099999999998     50.785224999999997
H      46.916550000000001     49.450200000000002     44.905824999999993
H      45.903750000000002     50.667099999999998     46.770325000000028
H      49.825150000000008     45.332900000000002     49.081305000000008
H      48.446550000000002     45.945999999999998     51.094175000000007
H      50.096249999999998     46.626799999999996     47.065725000000029
