18

C      48.280599999999993     48.012849999999993     48.867199999999997
C      47.848500000000001     48.167150000000007     47.428900000000006
C      48.225300000000004     46.624850000000009     49.204799999999999
C      47.378200000000007     46.928150000000002     46.837899999999998
C      48.803000000000011     49.210949999999997     49.411999999999999
C      48.110299999999995     49.302949999999996     46.696300000000001
C      47.918300000000002     45.497349999999997     48.585100000000004
C      47.091300000000004     45.693650000000005     47.468800000000002
C      48.714300000000009     50.455550000000002     48.705100000000002
C      48.805000000000007     50.393450000000001     47.296100000000003
H      48.860900000000001     46.376850000000005     50.204500000000003
H      47.400999999999996     46.976650000000006     45.669100000000000
H      49.571600000000004     49.424949999999995     50.413699999999999
H      48.194699999999997     49.316550000000007     45.586300000000001
H      47.895499999999998     44.543650000000000     49.029299999999999
H      46.428399999999996     44.896550000000005     46.869500000000002
H      48.991800000000012     51.456350000000000     49.132500000000000
H      48.794100000000000     51.429050000000004     46.678800000000003
