74

C      46.798199999999987     52.912250000000000     51.023059999999987
C      48.164500000000004     53.219750000000005     51.353259999999985
C      48.344600000000000     48.293130000000005     50.977129999999995
C      49.528900000000007     48.602879999999999     51.781549999999989
C      46.517399999999995     51.514240000000001     50.834739999999989
C      49.252800000000008     52.190569999999994     51.364609999999992
C      47.366299999999995     49.110349999999997     50.734479999999991
C      49.877200000000002     49.941190000000006     52.104579999999991
C      47.578500000000005     50.552700000000002     51.114129999999996
C      48.800200000000004     50.878460000000004     51.770409999999991
C      45.919200000000004     54.045950000000005     51.129649999999991
C      46.258899999999997     55.186250000000001     51.883260000000000
C      47.514099999999999     55.392150000000001     52.156899999999993
C      48.514300000000006     54.555149999999998     51.710069999999995
C      48.199799999999996     46.864739999999998     50.365929999999992
C      49.295600000000007     45.880610000000004     50.536469999999994
C      50.055099999999996     46.195080000000004     51.703069999999990
C      50.308499999999995     47.520070000000004     52.268469999999986
C      48.906199999999998     45.515110000000007     46.759009999999996
C      48.656900000000007     44.529080000000008     45.798179999999995
C      50.261300000000006     39.835349999999991     50.734499999999990
C      49.140100000000004     44.684799999999996     48.021849999999993
C      48.406999999999996     42.999052000000006     45.951719999999995
C      49.708600000000004     41.115750000000006     50.842699999999994
C      50.106200000000001     39.480449999999990     49.287949999999995
C      48.987899999999996     42.930345000000003     49.500939999999993
C      49.083200000000005     40.825050000000019     47.305939999999993
C      49.148300000000006     43.264420999999999     48.062119999999993
C      49.204000000000008     42.259549999999990     47.052289999999992
C      49.697400000000002     41.682350000000014     49.648929999999993
C      49.703800000000001     40.547650000000019     48.520979999999994
C      48.708300000000008     46.879940000000005     46.311799999999991
C      48.237499999999997     47.085870000000000     44.999669999999995
C      48.204899999999995     46.068960000000004     43.994519999999994
C      48.138199999999998     44.762479999999996     44.517359999999989
C      48.701700000000002     48.136409999999998     47.042159999999996
C      48.497399999999999     49.516159999999999     46.785489999999996
C      48.082599999999999     49.585189999999997     45.428119999999993
C      48.254500000000007     48.484840000000005     44.501609999999992
C      48.329800000000006     50.917689999999993     47.617009999999993
C      49.702399999999997     45.082650000000001     49.365039999999993
C      48.164200000000008     48.922510000000003     43.105589999999992
C      47.641199999999998     56.949849999999998     52.614749999999994
H      45.743899999999996     51.206270000000004     50.104649999999992
H      50.446500000000000     52.290180000000007     51.344450000000002
H      46.500299999999996     48.796300000000002     50.267529999999994
H      50.929800000000000     50.218940000000003     52.475279999999991
H      44.945800000000006     53.466049999999996     51.156399999999991
H      45.700800000000001     55.979349999999997     52.519589999999994
H      47.090100000000007     57.605049999999991     51.957669999999986
H      49.494699999999995     54.563050000000004     52.095329999999997
H      47.377300000000005     46.490380000000002     50.802579999999992
H      51.054199999999994     45.709660000000000     51.751869999999990
H      50.921999999999997     47.845990000000000     53.001649999999991
H      50.246800000000007     39.121150000000000     51.645119999999999
H      47.219200000000001     42.802430999999999     46.235139999999994
H      49.586700000000008     41.665750000000017     51.652829999999987
H      49.957700000000003     38.394950000000009     49.084579999999995
H      47.604200000000006     46.858459999999994     49.356449999999995
H      48.090800000000002     46.381619999999998     42.892166999999993
H      47.597099999999998     44.032319999999999     44.120469999999990
H      48.929500000000004     48.168970000000002     48.081269999999996
H      49.100600000000000     48.997609999999995     42.375050000000009
H      47.419899999999998     50.495720000000006     45.060919999999996
H      49.237899999999996     39.109450000000024     46.692509999999992
H      48.405900000000003     50.724180000000004     48.678299999999993
H      47.151600000000002     50.884360000000001     47.318849999999991
H      50.625299999999996     44.574160000000006     49.162939999999992
H      48.724100000000007     43.654470000000003     50.238899999999994
H      49.047700000000006     51.468869999999995     47.084749999999993
H      48.888900000000007     42.596350000000001     45.025539999999992
O      49.101500000000001     39.954050000000009     46.302649999999993
O      47.350200000000001     49.712930000000000     42.593949999999985
O      48.127200000000002     57.421349999999990     53.624949999999991
