42

C      47.648149999999994     48.887899999999995     49.697949999999999
C      48.586849999999998     49.912100000000002     49.586050000000000
C      48.089550000000003     47.034700000000001     45.136949999999999
C      49.498249999999999     47.756099999999996     45.311449999999994
C      47.450749999999999     47.762400000000000     48.713449999999995
C      49.505949999999999     49.875000000000000     48.438550000000006
C      47.639749999999999     46.768099999999997     46.445149999999998
C      50.050550000000001     48.521400000000000     46.399450000000002
C      48.087249999999997     47.895899999999997     47.405249999999995
C      49.189250000000001     48.862499999999997     47.482950000000002
C      46.975750000000005     48.570399999999999     50.883049999999997
C      46.879850000000005     49.584199999999996     51.868650000000002
C      47.238349999999997     50.993200000000002     51.306550000000001
C      48.518150000000006     50.991300000000010     50.718050000000005
C      47.459150000000001     46.813099999999999     43.947350000000000
C      48.220749999999995     46.942399999999999     42.798450000000003
C      49.461749999999995     47.635399999999997     42.948549999999997
C      50.102350000000001     48.044300000000000     44.107849999999999
C      46.449150000000003     47.220599999999997     51.234849999999994
C      45.606349999999999     47.434500000000000     52.356049999999996
C      45.528750000000002     48.360399999999998     53.440250000000006
C      46.063649999999996     49.654300000000006     53.085849999999994
C      46.307350000000000     46.119300000000003     50.250850000000000
C      46.950649999999996     46.458100000000002     49.035650000000004
C      47.027349999999998     45.208300000000001     48.230549999999994
C      46.982749999999996     45.586500000000001     46.891050000000007
H      47.362850000000002     51.711199999999998     52.246549999999999
H      49.991050000000001     50.625699999999995     48.510450000000006
H      50.877549999999999     49.252499999999998     46.312150000000003
H      46.419150000000002     51.400800000000004     50.871849999999995
H      46.508949999999999     46.569699999999997     43.947950000000006
H      48.078749999999999     46.475999999999999     41.690749999999994
H      50.051149999999993     47.793599999999998     42.127849999999995
H      51.133550000000000     48.598100000000002     44.288750000000007
H      45.307950000000005     46.408600000000000     52.388050000000007
H      44.866450000000000     48.242699999999999     54.309250000000006
H      45.656149999999997     45.005699999999997     50.394949999999994
H      46.337249999999997     44.288800000000002     48.461449999999999
H      46.691150000000000     45.001500000000000     46.075550000000007
H      45.512050000000002     51.189399999999992     53.858850000000004
O      46.333449999999999     50.625100000000003     54.010949999999994
O      49.304550000000006     51.655799999999999     51.299949999999995
