18

C      48.179649999999995     47.739649999999997     48.842649999999999
C      48.314249999999994     48.694150000000000     47.681550000000001
C      46.988049999999994     47.730150000000002     49.660750000000007
C      47.290749999999996     49.659150000000004     47.536850000000001
C      49.107650000000000     46.677750000000003     49.117450000000005
C      49.109450000000002     48.306350000000002     46.517849999999996
C      45.976350000000004     48.550950000000007     49.259749999999997
C      46.174649999999993     49.534350000000003     48.306750000000008
C      50.311149999999991     46.812350000000002     48.274050000000003
C      50.181249999999999     47.490050000000004     46.968750000000000
H      46.995849999999997     47.011350000000000     50.541550000000001
H      47.316349999999993     50.420049999999996     46.716850000000008
H      48.740149999999993     45.579950000000004     49.296950000000010
H      48.490149999999993     48.322450000000011     45.458449999999999
H      45.023249999999997     48.635750000000009     49.920650000000009
H      45.575349999999993     50.390650000000001     48.046149999999997
H      50.976750000000003     45.945750000000004     48.594149999999999
H      50.958250000000000     47.286250000000003     46.213650000000001
