18

C      48.641849999999998     48.027999999999992     47.642649999999996
C      47.454550000000005     47.670600000000007     48.383650000000003
C      48.758650000000003     47.757800000000003     46.305750000000003
C      46.482450000000000     47.268200000000007     47.467249999999993
C      49.824849999999998     48.567500000000010     48.219949999999997
C      47.680650000000000     47.557100000000005     49.881749999999997
C      47.641850000000005     47.370600000000010     45.445250000000001
C      46.528950000000009     46.899300000000011     46.080849999999998
C      49.846950000000007     48.510800000000017     49.569350000000000
C      48.889450000000011     47.900900000000007     50.590750000000000
H      49.882250000000013     47.946400000000011     45.895750000000007
H      45.630450000000003     47.012600000000006     48.107249999999993
H      50.412850000000006     49.214900000000000     47.551450000000003
H      46.858550000000008     46.956000000000003     50.446550000000002
H      47.887450000000001     47.169499999999999     44.436750000000004
H      45.420349999999999     46.785100000000000     45.741849999999999
H      50.579650000000001     49.170200000000008     50.036649999999995
H      48.936149999999998     47.328100000000006     51.563249999999996
