5

C      48.085449999999994     48.224964999999997     48.126349999999988
H      48.538849999999996     48.688065000000009     47.196950000000001
H      48.882249999999999     48.622165000000010     48.803049999999999
H      47.117750000000001     48.819665000000001     48.237449999999995
H      48.044749999999993     47.180334999999999     47.889849999999996
