18

C      47.357049999999994     48.667199999999994     48.600799999999992
C      47.080750000000002     48.153199999999998     47.245100000000008
C      47.156550000000003     47.768599999999992     49.656999999999996
C      47.258150000000001     46.700800000000001     46.945200000000000
C      48.322050000000004     49.708100000000002     48.628800000000012
C      47.292250000000003     49.088799999999992     46.193899999999999
C      47.148850000000003     46.380099999999999     49.328600000000009
C      47.355249999999998     45.832099999999997     47.980599999999995
C      48.736450000000005     50.362399999999994     47.578699999999998
C      48.110950000000003     50.275999999999996     46.254800000000003
H      47.272950000000002     48.239999999999995     50.837000000000003
H      47.162350000000004     46.360199999999992     45.907899999999998
H      48.625850000000000     49.862399999999994     49.724800000000002
H      46.551050000000004     49.259699999999995     45.162999999999997
H      46.822350000000000     45.824299999999994     50.199400000000011
H      47.568449999999999     44.799300000000002     47.861800000000002
H      49.448949999999996     51.200699999999998     47.802800000000005
H      47.909549999999996     51.071100000000001     45.666600000000003
