18

C      47.958550000000002     47.476900000000001     48.764450000000004
C      48.378550000000011     48.610700000000008     47.945750000000004
C      46.963750000000012     47.720700000000008     49.640250000000009
C      47.451150000000005     49.636099999999999     47.775750000000002
C      49.308850000000000     46.738399999999999     49.060950000000005
C      49.422450000000005     48.578400000000002     46.947050000000004
C      45.979649999999999     48.760700000000000     49.415350000000004
C      46.275950000000002     49.686599999999999     48.576650000000001
C      50.255749999999999     46.456299999999999     48.039050000000003
C      50.317050000000002     47.566199999999995     47.140050000000002
H      46.427350000000011     46.838300000000004     50.027450000000002
H      47.501350000000009     50.299699999999987     46.896850000000001
H      49.203350000000007     46.224400000000003     50.062150000000003
H      49.465350000000008     48.997000000000000     45.937849999999997
H      45.115349999999999     48.981500000000011     49.929749999999999
H      45.435250000000003     50.559299999999993     48.404049999999998
H      50.884650000000001     47.311099999999996     46.180550000000011
H      50.587750000000007     45.440700000000007     47.599750000000000
