18

C      49.032649999999990     47.472321999999977     47.912149999999997
C      48.038449999999997     48.281921999999987     48.693149999999989
C      50.037750000000003     48.407221999999997     47.370049999999992
C      48.203850000000003     49.733421999999997     48.980750000000000
C      48.806449999999998     46.240921999999991     47.618749999999991
C      46.761550000000000     47.579021999999988     48.874349999999993
C      49.872150000000005     49.775321999999996     47.265950000000004
C      49.043750000000003     50.537821999999984     48.232749999999996
C      47.702849999999998     45.410121999999994     48.072649999999996
C      46.566249999999997     46.156821999999984     48.684349999999995
H      45.827050000000000     47.829221999999994     49.403149999999997
H      50.597250000000003     47.862021999999989     46.767349999999993
H      47.278350000000003     50.197521999999985     49.328849999999989
H      49.650950000000009     45.761221999999997     46.878349999999998
H      50.527950000000004     50.281121999999989     46.596850000000003
H      49.099050000000005     51.617178000000003     48.315649999999991
H      47.688749999999999     44.382821999999997     48.318449999999999
H      45.402749999999997     45.938321999999992     49.230049999999991
