18

C      48.246599999999994     47.693799999999996     48.641799999999989
C      47.594899999999996     47.804200000000002     47.404399999999995
C      47.603700000000003     47.977799999999995     50.072299999999998
C      46.066600000000001     48.054000000000002     47.433099999999996
C      49.609300000000005     47.338400000000000     48.527900000000002
C      48.152999999999999     47.707300000000004     46.056399999999996
C      46.358100000000000     48.301900000000003     50.086200000000005
C      45.667699999999996     48.170200000000001     48.726500000000001
C      50.220100000000002     47.473800000000004     47.221100000000007
C      49.473900000000000     47.444099999999999     45.992100000000008
H      48.203600000000002     47.987000000000002     50.907399999999996
H      45.337299999999999     47.896400000000007     46.608500000000006
H      50.393400000000000     47.472000000000001     49.345700000000008
H      47.603099999999998     47.855200000000004     45.190200000000004
H      45.764200000000002     48.682200000000002     50.947900000000004
H      44.666499999999999     47.934600000000003     49.064400000000006
H      51.333500000000001     47.793600000000005     47.612400000000008
H      49.748999999999995     47.317799999999998     45.052099999999996
