18

C      48.100644999999993     48.591914999999986     47.133299999999991
C      48.123375000000010     47.215554999999995     48.039800000000007
C      48.997495000000001     49.629154999999990     47.537199999999999
C      48.498654999999999     47.319134999999996     49.442000000000000
C      47.468195000000001     48.635295000000006     45.948799999999999
C      47.489004999999999     46.143054999999997     47.585400000000000
C      49.438195000000000     49.445514999999993     48.903199999999991
C      48.912594999999996     48.529154999999996     49.925800000000002
C      46.751835000000000     47.398244999999996     45.749600000000001
C      46.867685000000002     46.190204999999999     46.371200000000002
H      48.889595000000000     50.636215000000000     46.997199999999999
H      48.105795000000001     46.671934999999998     50.105200000000004
H      47.524974999999998     49.509544999999996     45.156500000000001
H      47.250115000000001     45.412774999999996     48.394300000000008
H      49.922494999999998     50.395264999999988     49.343400000000010
H      49.174594999999997     48.615974999999999     51.111899999999999
H      46.077505000000002     47.367044999999997     44.888100000000001
H      46.150824999999998     45.363785000000000     46.124000000000002
