5

C      48.051499999999990     47.924599999999998     47.995099999999987
H      48.069099999999992     48.844400000000000     48.394799999999989
H      48.040499999999994     47.155600000000000     48.765500000000003
H      47.172899999999998     48.257000000000012     47.278700000000001
H      48.827100000000002     47.418800000000012     47.234499999999997
