18

C      48.706849999999989     48.140449999999994     48.682949999999991
C      48.877750000000006     48.251050000000006     47.229349999999997
C      49.283050000000003     47.190150000000003     49.592449999999992
C      49.523750000000007     47.128749999999997     46.604050000000001
C      48.040750000000003     49.312550000000002     49.357050000000008
C      47.833150000000003     49.057450000000003     46.586649999999999
C      49.684550000000002     46.018550000000005     48.902650000000001
C      49.653450000000007     46.041150000000002     47.451349999999998
C      47.118549999999999     50.050150000000002     48.655949999999997
C      46.767750000000007     49.658150000000006     47.268349999999998
H      49.420650000000009     47.308549999999997     50.661250000000003
H      49.835149999999999     47.000150000000005     45.641750000000002
H      48.409549999999996     49.699749999999995     50.277949999999997
H      47.535650000000004     48.884850000000000     45.338749999999997
H      49.690849999999998     44.957949999999997     49.549950000000003
H      50.012050000000002     45.153050000000000     47.000149999999998
H      46.774550000000005     51.042050000000003     48.942749999999997
H      45.987949999999998     50.203550000000007     46.423749999999998
