18

C      48.341549999999998     48.326949999999997     48.446249999999992
C      47.491550000000004     47.781350000000003     47.363750000000003
C      47.985749999999996     49.383749999999999     49.257950000000001
C      46.211950000000002     48.049650000000007     47.621550000000006
C      49.817949999999996     48.075949999999999     48.352450000000012
C      48.087550000000007     46.645050000000005     46.494850000000007
C      46.670749999999998     49.818550000000002     49.358550000000001
C      45.770049999999998     49.054750000000006     48.516449999999999
C      50.260950000000008     46.874950000000005     47.681950000000008
C      49.358550000000008     46.148250000000004     46.755350000000000
H      48.602249999999998     50.197650000000003     50.003250000000001
H      45.337249999999997     47.671950000000002     46.883350000000000
H      50.640850000000000     48.982050000000008     48.201750000000011
H      47.435150000000007     46.073750000000004     45.953949999999999
H      46.656450000000007     50.783949999999997     50.046050000000001
H      44.872150000000005     49.169450000000005     48.383650000000010
H      51.127849999999995     46.511650000000003     47.567450000000001
H      50.273750000000007     45.216050000000003     46.310350000000007
