18

C      48.100739999999988     48.237959999999987     47.201049999999995
C      48.117109999999997     47.740259999999985     48.663050000000005
C      48.874279999999999     47.568859999999994     46.310049999999997
C      49.156239999999997     46.879159999999992     49.188250000000004
C      47.335359999999994     49.343559999999989     47.118550000000006
C      47.160691999999997     48.048959999999987     49.640449999999994
C      49.751030000000000     46.464059999999996     46.617349999999995
C      49.556929999999994     46.116459999999996     48.050350000000002
C      46.484410999999994     49.937125000000002     48.188250000000004
C      46.300890000000010     49.187559999999998     49.343049999999998
H      47.664409999999990     50.091785000000009     46.094349999999999
H      48.807899999999989     47.364559999999990     45.208350000000003
H      49.221239999999995     46.588859999999990     50.203849999999996
H      45.829090000000008     50.837240000000001     48.324450000000006
H      47.021062999999998     47.446759999999990     50.791649999999997
H      50.038299999999992     45.580559999999998     45.834250000000004
H      50.229509999999991     45.162759999999999     48.058249999999994
H      45.770490000000009     49.600164999999997     50.148450000000004
