26

C      48.670574999999985     48.306049999999999     45.735024999999993
C      49.112375000000000     48.809749999999994     44.542040999999998
C      48.166375000000002     49.427549999999997     43.430525000000003
C      47.635535000000004     47.368150000000000     50.156644999999997
C      47.166614999999993     48.708449999999999     50.615894999999995
C      48.296075000000002     47.082350000000005     48.918454999999994
C      47.213634999999996     49.663349999999994     49.515614999999997
C      47.228674999999996     46.164349999999999     50.751064999999997
C      46.694434999999999     48.766949999999994     51.950064999999995
C      48.410574999999994     48.114949999999993     47.981245000000001
C      48.014174999999994     49.376850000000005     48.344364999999996
C      46.283355000000000     46.112549999999999     51.844215000000005
C      46.161595000000005     47.468750000000000     52.436734999999999
H      47.601465000000005     48.840750000000000     45.673474999999996
H      47.246735000000001     48.815849999999998     43.721924999999999
H      50.172075000000007     49.252449999999996     44.587693999999999
H      48.249375000000001     49.017849999999996     42.573125000000005
H      48.047875000000005     50.557050000000004     43.056624999999997
H      48.796375000000012     46.251249999999999     48.361075000000000
H      46.706334999999996     50.884749999999997     49.378654999999995
H      47.381055000000003     45.177149999999997     50.464354999999998
H      46.715485000000001     49.650450000000006     52.611884999999987
H      48.304474999999996     50.142649999999989     47.521964999999994
H      45.827924999999993     45.115250000000003     52.247884999999997
H      45.985264999999998     47.384050000000002     53.426874999999995
O      49.146375000000006     47.793850000000006     46.933854999999994
