5

C      47.814459999999997     47.762199999999993     47.791950000000000
H      47.833859999999987     48.736399999999996     48.056149999999995
H      47.205650000000006     47.444699999999997     47.101949999999995
H      48.794349999999994     47.263600000000004     47.407850000000003
H      47.608099999999993     47.327599999999997     48.898050000000005
