18

C      48.621799999999993     47.622509999999991     48.861999999999995
C      47.478299999999997     47.754930000000016     48.084599999999995
C      49.058699999999995     48.554880000000011     49.751600000000003
C      46.902600000000000     49.146550000000005     47.905600000000000
C      49.300900000000006     46.401180000000011     48.552299999999995
C      47.000499999999995     47.023400000000009     46.952099999999994
C      48.523000000000003     49.835690000000000     49.521700000000003
C      47.470099999999995     50.094600000000000     48.592099999999995
C      49.005400000000002     45.741990000000001     47.355199999999996
C      47.795800000000007     45.939540000000008     46.600899999999996
H      49.895000000000003     48.133230000000012     50.492200000000004
H      46.369000000000007     49.515020000000007     46.944199999999995
H      49.900399999999998     45.961790000000008     49.323799999999999
H      46.099600000000002     47.428490000000011     46.525099999999995
H      48.528299999999994     50.727600000000010     50.126399999999997
H      47.219900000000003     51.188400000000001     48.294300000000000
H      49.534399999999998     44.811599999999999     46.979799999999997
H      47.567000000000000     45.331670000000003     45.507799999999996
