18

C      48.425149999999995     48.593699999999984     47.700599999999994
C      48.129450000000006     47.207499999999996     47.824399999999997
C      47.714650000000006     49.295299999999997     46.717799999999997
C      47.303850000000011     46.582499999999996     46.778199999999998
C      48.706350000000000     49.354799999999997     48.793899999999994
C      48.521650000000008     46.706199999999995     49.136399999999995
C      46.763950000000008     48.676000000000002     45.913399999999996
C      46.590350000000001     47.331099999999992     45.744599999999991
C      49.283050000000003     48.621700000000004     49.886299999999991
C      48.679550000000006     47.380200000000002     50.302999999999997
H      47.757150000000010     50.439999999999998     47.040499999999994
H      47.056250000000006     45.635499999999993     47.121799999999993
H      48.664450000000002     50.442900000000009     49.070099999999996
H      48.322450000000003     45.557099999999991     49.049099999999996
H      46.240050000000011     49.316199999999995     45.129700000000000
H      46.162250000000000     46.752399999999994     44.794600000000003
H      49.837750000000000     49.049500000000009     50.832499999999996
H      48.968250000000012     46.908199999999994     51.205399999999997
