66

C      41.783749999999998     43.205749999999988     48.358649999999990
C      45.110249999999994     44.660650000000004     45.929150000000000
C      44.328049999999990     45.506649999999993     46.725450000000002
C      52.505449999999996     50.230450000000005     48.951250000000002
C      46.356849999999994     45.250050000000002     45.240650000000002
C      51.312650000000005     51.130249999999997     49.505450000000010
C      52.140850000000000     49.314449999999994     47.907750000000000
C      44.590750000000000     46.970349999999996     46.511250000000004
C      49.281349999999989     52.406149999999982     48.732150000000004
C      48.236850000000004     52.457749999999990     47.799250000000001
C      46.215649999999997     50.956149999999994     47.325450000000004
C      45.857849999999999     49.578849999999996     47.608850000000004
C      48.406149999999997     46.571650000000005     46.089750000000002
C      50.189449999999994     47.633550000000000     47.509850000000000
C      50.082949999999997     51.200249999999997     48.776650000000004
C      47.668050000000008     51.369849999999985     46.912050000000001
C      46.945650000000001     46.269549999999995     45.999450000000003
C      50.725449999999995     48.924049999999994     47.968249999999998
C      49.017449999999997     47.711149999999989     46.765050000000002
C      45.938549999999992     47.255749999999992     46.431550000000001
C      46.528750000000002     48.626249999999999     46.807549999999999
C      49.807249999999996     50.087049999999991     47.742150000000002
C      47.921850000000006     48.799549999999996     47.091050000000003
C      48.504549999999995     50.047449999999998     47.354950000000002
C      44.545850000000002     43.281649999999985     45.617750000000001
C      43.551550000000006     42.904649999999997     46.634450000000001
C      42.874549999999999     43.762649999999994     47.432350000000000
C      43.356449999999995     45.090549999999993     47.742750000000001
C      53.841350000000006     50.571649999999998     49.432749999999999
C      53.820850000000007     51.646649999999994     50.346149999999994
C      52.709350000000001     52.261849999999995     51.059849999999997
C      51.403450000000007     51.999149999999986     50.593050000000005
C      50.454449999999994     53.027049999999996     51.032349999999994
C      49.791449999999998     53.548249999999989     49.646450000000002
C      47.026949999999999     44.328449999999989     44.303049999999999
C      46.219250000000002     43.246449999999996     43.989249999999998
C      45.110149999999990     42.646249999999995     44.581550000000000
C      45.055750000000003     51.835750000000004     47.230049999999999
C      49.321849999999998     52.722850000000001     51.920749999999998
H      41.234449999999995     44.020249999999990     48.811149999999998
H      41.378649999999993     42.760349999999995     47.430550000000004
H      42.126149999999996     42.153349999999996     48.575450000000004
H      51.110849999999999     53.960149999999985     51.323549999999997
H      52.787449999999993     48.654249999999998     47.519550000000002
H      47.722849999999994     51.659649999999999     45.791850000000004
H      44.747550000000004     49.326949999999997     47.738750000000003
H      49.061350000000004     46.325449999999989     45.424050000000001
H      50.877350000000007     46.742749999999987     47.470050000000001
H      43.266549999999995     41.722849999999994     46.748449999999998
H      43.313649999999996     45.589449999999985     48.742550000000008
H      54.704449999999994     50.479949999999988     48.706850000000003
H      54.765550000000005     52.010649999999984     50.104349999999997
H      52.995950000000008     53.282349999999994     51.258849999999995
H      48.913849999999996     54.202650000000006     49.860650000000007
H      50.352050000000006     54.277150000000006     49.173650000000002
H      47.997149999999991     44.571749999999994     43.954549999999998
H      46.909049999999993     42.892849999999996     43.153350000000003
H      44.742849999999990     41.739349999999995     44.210850000000001
H      42.612249999999989     47.409849999999999     46.498649999999998
H      44.205550000000002     51.482550000000003     47.068849999999998
H      45.197249999999997     52.874449999999996     47.121850000000002
H      49.460250000000002     52.343549999999993     52.846649999999997
H      48.757649999999998     51.909049999999993     51.588449999999995
H      48.725949999999997     53.641749999999988     51.948250000000002
O      43.517150000000001     47.837149999999994     46.515450000000001
O      47.812349999999995     53.561850000000007     47.600850000000001
