7

C      47.995439999999988     47.797149999999995     47.920449999999988
C      48.071750000000009     47.493350000000007     46.647050000000007
C      47.967320000000001     48.072350000000000     49.165450000000007
H      48.921390000000002     46.881450000000001     46.374449999999996
H      47.628730000000004     49.118549999999999     49.399850000000015
H      47.078609999999998     47.308550000000004     46.097149999999999
H      48.173259999999999     47.237549999999999     49.902850000000001
