6

C      48.823799999999984     47.983199999999997     48.190349999999988
C      47.464299999999994     47.889099999999999     48.102949999999993
H      49.287099999999995     46.908900000000003     48.557450000000003
H      49.352800000000002     49.091099999999997     48.333849999999998
H      46.647199999999998     48.298600000000008     47.442549999999997
H      46.671599999999998     47.161699999999996     48.236350000000002
