18

C      48.131249999999994     48.452149999999989     48.287049999999994
C      47.848250000000000     47.057649999999995     47.650550000000003
C      47.270550000000007     48.718150000000001     49.352650000000004
C      46.708950000000009     46.354549999999996     47.824950000000001
C      49.305650000000007     49.153549999999989     47.996650000000002
C      48.662350000000011     46.797750000000001     46.644350000000003
C      46.209550000000000     47.940649999999998     49.756449999999994
C      46.057450000000010     46.818349999999995     48.964750000000002
C      50.094650000000009     48.929349999999999     46.899450000000002
C      49.831949999999999     47.679849999999995     46.229450000000000
H      47.316150000000000     49.708149999999996     49.917049999999996
H      46.132650000000005     45.915450000000000     46.952150000000003
H      49.491950000000010     50.180850000000000     48.550350000000002
H      48.364350000000009     45.819150000000000     46.362450000000003
H      45.542050000000010     47.943950000000001     50.574849999999998
H      45.286149999999999     46.011649999999996     48.925750000000001
H      50.713850000000001     49.759049999999995     46.519050000000000
H      50.495550000000001     47.465849999999996     45.425150000000002
