18

C      48.399999999999991     47.591719999999995     48.252099999999999
C      47.438800000000001     48.577720000000014     47.850899999999996
C      49.151499999999999     47.821770000000001     49.475300000000004
C      46.803299999999993     49.417710000000000     48.831599999999995
C      48.794399999999996     46.474910000000008     47.348100000000002
C      47.129300000000001     48.339830000000006     46.526800000000009
C      48.523700000000005     48.779540000000011     50.307299999999998
C      47.283500000000004     49.508880000000005     50.129899999999992
C      48.815399999999997     46.500180000000000     45.931399999999996
C      47.788100000000000     47.417169999999999     45.652400000000000
H      50.090000000000003     47.003489999999999     49.768100000000004
H      45.909999999999997     49.936480000000003     48.381999999999991
H      49.501400000000004     45.684939999999997     47.557699999999997
H      46.328000000000003     48.972520000000003     46.089200000000005
H      49.055900000000008     49.370469999999997     51.318399999999997
H      46.938100000000006     50.315060000000003     50.798500000000004
H      49.706000000000003     46.279300000000006     45.246000000000009
H      47.445800000000006     47.206670000000003     44.681600000000003
