18

C      47.425484999999988     47.773799999999994     47.408699999999989
C      48.548794999999998     48.097300000000011     48.246099999999998
C      47.067044999999993     48.639599999999994     46.279300000000006
C      49.197934999999987     49.293799999999997     47.931500000000000
C      46.646964999999994     46.657100000000000     47.605300000000000
C      48.835284999999999     47.667600000000000     49.551600000000008
C      48.020214999999993     49.745700000000006     46.032100000000000
C      49.204104999999998     49.973500000000008     46.666600000000003
C      47.053964999999998     46.168100000000003     48.880899999999997
C      47.790294999999993     46.792700000000004     49.795699999999997
H      46.023814999999999     49.004600000000003     45.938599999999994
H      50.146365000000003     49.347100000000005     48.457700000000003
H      45.853634999999997     46.231100000000005     46.888700000000000
H      49.550804999999997     48.118700000000004     50.444199999999995
H      47.709434999999999     50.497099999999996     45.157799999999995
H      49.854915000000005     50.798600000000000     46.562500000000000
H      46.668504999999996     45.201400000000000     49.306500000000000
H      47.779624999999996     46.360199999999999     50.842200000000005
