18

C      48.964599999999990     47.501799999999996     48.145099999999992
C      47.574300000000001     47.912400000000005     47.982900000000001
C      49.580000000000005     47.975700000000003     46.917699999999996
C      47.134999999999998     49.065200000000004     47.169300000000007
C      49.503800000000005     46.715200000000003     49.262900000000002
C      46.594799999999999     47.320700000000002     48.833399999999997
C      49.361700000000006     48.977200000000011     45.840199999999996
C      48.107599999999998     49.462400000000002     46.164100000000005
C      48.387700000000002     46.206500000000005     49.889899999999997
C      46.978199999999994     46.530000000000001     49.857399999999998
H      48.042300000000004     50.523899999999998     45.872299999999996
H      49.977799999999995     47.010000000000005     46.261700000000005
H      46.095599999999997     49.348200000000006     47.069000000000003
H      50.347500000000004     46.590000000000003     50.043999999999997
H      45.652499999999996     47.658400000000000     48.663499999999999
H      50.200200000000002     49.444100000000006     45.310699999999997
H      48.677200000000006     45.476100000000002     50.689300000000003
H      45.727399999999996     46.440300000000008     50.119200000000006
