18

C      47.400829999999999     47.300500999999990     47.637149999999991
C      47.987210000000005     48.141700999999998     48.769249999999992
C      46.326710000000006     47.803500999999997     46.746850000000002
C      47.424289999999999     49.426501000000002     48.815449999999991
C      48.227679999999992     46.078400999999999     47.599749999999993
C      49.244119999999995     47.670300999999995     49.430950000000003
C      45.739687000000004     48.942200999999997     47.182049999999997
C      46.202399999999997     49.847701000000001     48.161149999999999
C      49.561599999999999     45.971700999999996     48.074249999999999
C      50.250919999999994     46.799700999999999     49.021149999999999
H      45.742461000000006     47.530800999999997     45.859950000000005
H      47.762299999999996     50.230909999999994     49.709250000000004
H      48.039059999999992     45.216200999999998     47.108950000000000
H      50.013220000000004     48.346500999999989     50.140049999999995
H      44.920739999999995     49.334700999999995     46.573749999999997
H      45.838144999999997     50.783799000000002     48.304749999999991
H      50.136749999999992     45.249400999999992     47.353450000000002
H      51.079260000000005     46.410100999999997     49.793550000000003
