45

C      48.911599999999986     48.969199999999987     49.819364999999991
C      49.199899999999992     47.616700000000002     49.198284999999998
C      43.593799999999995     48.545099999999998     45.059314999999998
C      43.796199999999992     47.165699999999994     44.981774999999999
C      47.782699999999991     49.603999999999992     49.266405000000006
C      48.382299999999994     46.733299999999993     48.480834999999999
C      44.491799999999991     46.385199999999990     45.942814999999996
C      46.154799999999994     49.471799999999995     47.274505000000005
C      47.126799999999996     48.829699999999995     48.041955000000002
C      47.231299999999997     47.414799999999993     47.917355000000001
C      45.172699999999992     48.785599999999995     46.590585000000004
C      45.373099999999994     47.315599999999996     46.673074999999997
C      49.745799999999996     49.705599999999997     50.747665000000012
C      51.086099999999988     49.080199999999998     51.081164999999999
C      51.211600000000004     47.688499999999998     50.969205000000002
C      50.360100000000003     47.003200000000000     49.866744999999995
C      47.352499999999992     50.893599999999999     49.603414999999998
C      48.038499999999992     51.359099999999991     50.674215000000004
C      49.372699999999995     50.962299999999992     51.076525000000004
C      48.798299999999998     45.378700000000002     47.805445000000006
C      49.883899999999997     44.871299999999998     48.566254999999998
C      50.724099999999993     45.787999999999990     49.293445000000006
C      44.711699999999993     44.913300000000000     46.422655000000006
C      48.413099999999993     44.999099999999991     46.485335000000006
C      52.178600000000003     45.264999999999993     49.371674999999996
H      52.411100000000005     44.740299999999998     50.372434999999996
H      49.281300000000002     44.382799999999996     46.171025000000000
H      42.996899999999997     49.187899999999992     44.402874999999995
H      43.394199999999991     46.165100000000002     44.504855000000006
H      46.222899999999996     50.718799999999995     47.142884999999993
H      51.940199999999990     49.923099999999998     51.470025000000007
H      52.065999999999988     47.228699999999996     51.252645000000001
H      46.497499999999995     51.343399999999995     48.915755000000004
H      47.273799999999994     52.164200000000001     51.219895000000008
H      50.098199999999991     51.668199999999992     51.597125000000005
H      48.775199999999991     46.098700000000001     46.146064999999993
H      46.755699999999997     44.108799999999995     45.827505000000002
H      50.004699999999985     43.854099999999995     48.253545000000003
H      45.479599999999991     44.624099999999991     47.147205000000000
H      52.347099999999998     44.624499999999991     48.490364999999997
H      53.003100000000003     46.121099999999991     49.454845000000006
N      44.438799999999993     49.338000000000001     45.659324999999995
N      46.414199999999994     46.762899999999995     47.185275000000004
O      44.194699999999997     44.015499999999996     45.777384999999995
O      47.476099999999995     43.835799999999999     46.538565000000006
