18

C      48.070549999999997     47.434565999999990     48.037799999999997
C      48.198850000000000     48.778766000000005     47.758500000000005
C      48.551650000000002     46.528366000000005     47.045300000000005
C      48.809149999999995     49.392166000000003     46.640700000000002
C      47.253250000000001     47.069966000000008     49.194400000000002
C      47.571850000000005     49.651465999999999     48.746400000000008
C      49.016950000000001     46.940166000000005     45.682800000000000
C      49.345350000000003     48.335766000000007     45.794400000000003
C      46.927650000000000     47.979765999999998     50.129700000000000
C      47.583449999999999     49.311766000000006     50.145399999999995
H      48.357149999999997     45.516965999999996     47.443200000000004
H      49.011850000000003     50.483034000000004     46.311400000000006
H      47.014949999999999     46.065566000000004     49.480000000000004
H      46.516150000000003     50.071725000000015     48.683800000000005
H      49.531250000000000     46.335866000000010     44.998400000000004
H      49.818350000000002     48.986966000000010     44.942599999999999
H      46.181649999999998     47.807166000000009     51.057400000000001
H      46.860549999999996     49.635766000000004     50.834600000000009
