18

C      48.388399999999990     47.609149999999985     48.069549999999992
C      47.558800000000005     48.771649999999994     47.691249999999997
C      49.799000000000007     47.963049999999996     48.392850000000003
C      48.126400000000004     50.139150000000001     47.892749999999999
C      48.326300000000003     46.322050000000004     47.385849999999998
C      46.300100000000000     48.217750000000009     47.623649999999998
C      50.088000000000008     49.258949999999999     48.782649999999997
C      49.377300000000005     50.409049999999993     48.332650000000008
C      46.957400000000007     45.863450000000000     47.171650000000000
C      46.045299999999997     46.911050000000003     47.245149999999995
H      50.091100000000012     47.370949999999993     49.239250000000006
H      47.523499999999999     51.082549999999998     48.151150000000001
H      49.305400000000006     45.907650000000004     47.637450000000001
H      45.687899999999999     49.060950000000005     47.670049999999996
H      51.078000000000003     49.378950000000003     49.089649999999999
H      49.734600000000000     51.235950000000003     48.533649999999994
H      46.660600000000002     44.764049999999997     46.760749999999994
H      44.921999999999997     46.705249999999992     47.111449999999998
