18

C      48.571349999999995     48.181799999999988     48.713899999999988
C      47.501085000000003     48.627099999999999     47.830100000000002
C      49.585034999999991     47.369200000000006     48.102999999999994
C      47.524185000000003     48.353099999999998     46.369199999999992
C      48.812404000000001     48.508300000000006     50.144599999999997
C      46.299385000000015     48.899100000000004     48.563099999999991
C      49.619034999999997     47.032200000000003     46.741000000000000
C      48.764940999999993     47.765799999999999     45.829499999999996
C      47.620084999999989     49.235100000000003     50.673299999999998
C      46.425684999999987     49.437399999999997     49.738199999999992
H      50.734314999999995     47.255300000000005     48.517399999999995
H      46.609684999999999     47.971400000000003     46.026399999999995
H      49.738464999999991     48.147800000000004     50.867699999999999
H      45.265685000000005     48.599599999999995     48.190399999999997
H      49.982784999999993     45.989900000000006     46.509399999999999
H      48.920824999999994     47.619500000000002     44.680599999999998
H      47.782785000000004     50.010099999999994     51.319400000000002
H      45.685984999999988     49.772599999999997     50.581400000000002
