18

C      47.330399999999990     48.294415000000001     48.543650000000000
C      48.319200000000009     47.297754999999995     47.970050000000008
C      47.856999999999999     49.348124999999996     49.320850000000000
C      49.628000000000000     47.922195000000002     47.670250000000003
C      46.056300000000000     48.261534999999995     47.953450000000011
C      48.033600000000000     46.272234999999995     47.040350000000011
C      49.294600000000003     49.576264999999992     49.301850000000009
C      50.173700000000011     49.026004999999998     48.373150000000003
C      45.812600000000003     47.138054999999994     47.135849999999998
C      46.622599999999998     46.237844999999993     46.573550000000004
H      47.263400000000004     50.153885000000002     49.658650000000002
H      50.430100000000003     47.469674999999995     47.073850000000000
H      45.520699999999998     49.136184999999998     48.212750000000007
H      49.015999999999998     46.026435000000006     46.436850000000000
H      49.414800000000000     50.551095000000004     49.999350000000000
H      51.259299999999996     49.663674999999998     48.326850000000000
H      44.740700000000004     46.953625000000002     46.781450000000000
H      46.311799999999998     45.448904999999996     46.000650000000000
