47

C      47.914799999999993     48.209249999999997     48.782799999999995
C      47.836199999999998     49.105959999999996     49.926499999999997
C      50.972200000000001     45.416570000000007     51.020500000000006
C      51.199500000000000     46.426910000000007     51.970300000000002
C      49.134999999999991     47.582530000000006     48.387300000000003
C      49.150199999999998     49.237240000000000     50.477200000000003
C      50.201800000000006     45.551670000000001     49.781600000000005
C      50.766099999999994     47.765289999999993     51.710700000000010
C      49.659300000000002     46.835070000000002     49.639000000000003
C      50.016099999999994     47.976659999999995     50.527400000000007
C      47.104900000000001     48.707170000000005     47.611700000000006
C      45.967699999999994     49.696359999999999     47.858300000000007
C      45.577900000000000     49.818590000000000     49.195100000000004
C      46.552700000000002     49.786509999999993     50.234700000000004
C      49.343699999999998     47.049049999999994     47.038400000000003
C      47.172699999999999     49.661289999999994     45.208199999999998
C      47.475999999999999     48.526830000000004     46.269300000000001
C      49.518299999999996     50.584199999999996     51.027400000000007
C      45.641199999999998     51.378940000000000     51.857400000000005
C      46.271099999999997     50.106489999999994     51.635299999999994
C      50.319900000000004     44.340429999999998     48.724100000000000
C      46.712400000000002     49.106059999999999     43.854400000000005
C      45.611599999999996     47.989649999999997     43.963400000000000
C      48.452799999999996     47.480869999999996     46.033700000000003
H      51.885800000000003     44.700620000000001     51.063099999999999
H      51.701800000000006     46.228800000000007     52.876100000000001
H      45.418099999999995     50.158420000000007     47.104000000000006
H      48.070899999999995     50.126859999999994     45.000800000000005
H      48.855599999999995     51.190689999999989     51.682400000000008
H      49.928100000000001     50.986080000000001     50.129600000000003
H      44.919200000000004     51.807139999999990     52.568199999999997
H      46.641900000000000     49.533649999999994     52.706099999999999
H      50.188900000000004     50.574950000000001     51.697899999999997
H      51.298900000000003     44.105860000000007     48.193500000000007
H      45.889499999999998     46.849329999999995     43.982599999999998
H      45.279200000000003     47.972099999999998     45.011100000000006
H      44.935899999999997     48.108739999999997     42.832000000000001
H      51.665899999999993     48.728530000000006     53.167999999999999
H      50.121299999999991     46.269459999999995     46.652000000000001
H      48.681299999999993     46.899039999999999     45.184500000000007
H      46.509500000000003     50.459569999999999     45.501899999999999
H      46.359099999999998     52.187039999999996     51.261699999999998
H      44.114199999999997     50.648629999999997     50.223100000000002
O      49.189200000000000     43.812960000000004     48.418500000000002
O      47.448599999999999     49.230969999999999     42.923900000000003
O      50.815799999999996     48.755910000000000     52.538000000000004
O      44.307299999999998     50.138279999999995     49.502199999999995
