14

C      48.028249999999993     46.334949999999992     47.867199999999997
C      48.880349999999993     47.049149999999997     47.076100000000004
C      48.970050000000001     48.427750000000003     47.185900000000004
C      48.358450000000005     49.263949999999994     48.181400000000004
C      47.590549999999993     48.478250000000003     49.076100000000004
C      47.425449999999998     47.105850000000004     48.866800000000005
H      48.853750000000005     51.145350000000008     48.410400000000003
H      49.326750000000004     46.383949999999999     46.234400000000001
H      49.445549999999997     48.832149999999999     46.347700000000003
H      46.871549999999999     48.953050000000005     49.765599999999999
H      46.554450000000003     46.861750000000001     49.387000000000008
H      47.301950000000005     44.854649999999992     46.657500000000006
O      48.164149999999992     50.617149999999995     48.064400000000006
O      47.082149999999999     45.422150000000002     47.385800000000003
