5

C      47.998149999999995     47.760199999999998     48.215449999999990
H      48.958150000000003     47.274100000000004     48.041749999999993
H      47.778250000000000     48.784900000000000     48.650450000000006
H      47.041849999999997     47.215100000000000     48.202449999999999
H      47.522550000000010     48.331200000000003     47.349549999999994
