42

C      48.276249999999990     47.712349999999994     47.841649999999987
C      49.562650000000005     48.157749999999993     48.496049999999997
C      46.595749999999995     48.643850000000000     52.125749999999996
C      47.143150000000006     47.864350000000002     48.700150000000008
C      49.637050000000002     48.760149999999996     49.757649999999998
C      46.074749999999995     48.635449999999992     50.906350000000003
C      48.105450000000005     48.726249999999993     51.906550000000010
C      47.139049999999997     48.159749999999988     50.092449999999999
C      48.493849999999995     48.552250000000001     50.516450000000006
C      48.300150000000002     46.985549999999989     46.590850000000003
C      49.442450000000008     46.985649999999993     45.687650000000005
C      50.644150000000010     47.969949999999997     47.526949999999999
C      46.988349999999997     46.657649999999990     46.145850000000010
C      46.936949999999996     46.372149999999991     44.622950000000003
C      48.143950000000004     46.310649999999995     43.784549999999996
C      49.319249999999997     46.744149999999991     44.349350000000001
C      45.852249999999998     46.942449999999994     46.907650000000004
C      45.790649999999999     47.690249999999992     48.152250000000009
C      44.585549999999998     48.367549999999994     48.587350000000001
C      44.559950000000001     48.570949999999996     49.857550000000003
C      48.870350000000002     49.702950000000001     52.719350000000006
C      43.833250000000007     48.974849999999989     47.878550000000004
C      44.529250000000005     46.607949999999988     46.236050000000006
C      52.013050000000007     48.612249999999989     47.876649999999998
H      45.773049999999998     48.930749999999989     53.277150000000006
H      50.555949999999996     49.001449999999991     50.264750000000006
H      46.000749999999996     45.994850000000000     44.294650000000004
H      48.212150000000008     46.240249999999989     42.722849999999994
H      50.280550000000005     46.932649999999995     44.063450000000003
H      44.311650000000000     47.668250000000000     50.496850000000009
H      43.770949999999999     49.196749999999994     50.152550000000005
H      48.213549999999998     50.438749999999999     53.205449999999999
H      44.298950000000005     47.463349999999991     45.453850000000003
H      43.675650000000005     46.871049999999997     46.867150000000009
H      44.681049999999999     49.385549999999995     47.148449999999997
H      44.281149999999997     45.561250000000001     45.835549999999998
H      53.044049999999999     48.166849999999997     47.657950000000000
H      52.113550000000018     49.760549999999995     47.835350000000005
H      52.240749999999991     48.550550000000001     48.978149999999999
H      42.955950000000001     49.325849999999988     48.570750000000004
N      50.543950000000009     47.477049999999991     46.397850000000005
O      50.093649999999997     49.621449999999996     52.761850000000010
