18

C      47.162749999999996     48.025749999999988     48.194074999999991
C      48.485250000000008     47.895549999999993     47.608620000000002
C      46.525150000000011     46.780949999999997     48.528955000000011
C      49.132750000000001     46.815049999999992     46.837435000000006
C      46.851850000000013     49.225349999999999     49.011695000000003
C      49.250250000000008     49.001349999999995     47.665247999999998
C      47.222150000000013     45.712650000000004     48.001449000000001
C      48.277450000000002     45.695349999999998     46.955935000000018
C      47.710350000000005     50.228649999999995     48.870384999999999
C      48.927050000000008     50.282850000000003     48.081105000000001
H      46.053450000000012     46.561850000000000     49.507535000000004
H      50.046350000000004     47.045849999999994     46.365235000000020
H      45.924650000000000     49.411849999999994     49.660214999999994
H      50.075350000000000     48.826149999999991     47.223334000000001
H      46.835950000000011     44.761450000000004     48.413484999999994
H      48.227650000000011     44.829649999999994     46.263935000000004
H      47.232150000000004     50.853450000000002     49.736064999999996
H      49.619550000000004     51.238549999999996     47.861837999999999
