18

C      47.622449999999994     48.924149999999997     48.281499999999994
C      47.631749999999997     47.433149999999998     48.025900000000007
C      48.204350000000005     49.616849999999999     47.153000000000006
C      47.475750000000005     46.805350000000004     46.695099999999996
C      47.941650000000003     49.453649999999996     49.588499999999996
C      47.590950000000007     46.453350000000000     49.006799999999998
C      47.935650000000010     49.111450000000005     45.900500000000008
C      47.775450000000006     47.743749999999991     45.655600000000007
C      47.971150000000002     48.488950000000003     50.558499999999995
C      47.873950000000008     46.989249999999998     50.324399999999997
H      48.490750000000006     50.694649999999996     47.480000000000004
H      47.914150000000006     45.761949999999999     46.460300000000004
H      48.092350000000010     50.507949999999994     49.583999999999989
H      47.683049999999994     45.305350000000004     48.670699999999997
H      48.291150000000002     49.726749999999996     45.034900000000007
H      48.142849999999996     47.627749999999992     44.488200000000006
H      48.524249999999995     48.478650000000002     51.511799999999994
H      47.868650000000002     46.288650000000004     51.043999999999997
