41

C      47.388299999999994     48.707049999999995     48.079349999999991
C      48.509500000000003     49.369949999999996     48.536350000000006
C      48.492699999999999     45.857650000000000     52.001049999999999
C      46.809100000000001     47.816150000000000     49.128050000000002
C      49.467000000000006     48.590949999999999     49.392249999999997
C      47.345500000000001     46.237850000000002     51.254049999999999
C      47.691300000000012     47.057250000000003     50.148249999999997
C      48.882400000000004     47.690549999999995     50.334150000000001
C      46.800500000000000     49.225850000000001     46.875049999999995
C      47.145099999999999     50.146949999999997     45.776750000000000
C      48.152500000000003     50.869650000000000     46.511949999999999
C      48.845500000000001     50.555249999999994     47.694650000000003
C      45.560800000000000     48.460450000000002     46.452350000000003
C      44.794600000000003     48.850950000000005     45.281849999999999
C      45.445500000000003     49.758149999999993     44.376449999999998
C      45.505100000000006     47.474249999999991     48.741149999999998
C      44.919000000000004     47.750849999999993     47.454450000000001
C      50.810100000000006     49.106149999999992     49.807850000000009
C      51.188100000000006     49.847549999999991     48.597950000000004
C      50.193500000000000     51.004550000000002     48.250149999999998
C      48.707200000000000     44.697849999999995     53.000250000000001
C      44.747100000000003     49.587849999999996     43.014050000000005
H      51.155400000000000     50.576850000000000     51.482350000000004
H      46.275000000000006     46.082850000000001     51.478949999999990
H      48.390000000000001     51.936349999999997     46.228349999999999
H      44.947400000000002     46.946750000000002     49.546750000000003
H      43.902100000000004     47.408149999999999     47.199050000000000
H      43.907299999999999     48.032750000000000     44.885150000000003
H      51.774100000000004     48.341349999999998     49.878050000000002
H      51.206500000000005     49.120749999999994     47.523550000000000
H      52.097899999999996     50.186550000000004     48.522649999999992
H      50.469700000000003     51.809649999999998     47.642949999999999
H      49.513700000000000     51.596650000000004     49.054449999999996
H      47.950200000000002     44.284050000000001     53.855950000000000
H      44.186500000000002     48.612949999999991     43.049749999999996
H      45.398900000000005     49.959749999999993     42.144050000000000
H      44.247900000000001     50.585850000000001     43.023150000000001
N      46.392099999999999     50.525550000000003     44.801349999999999
O      51.336600000000004     49.804250000000003     51.032449999999997
O      49.723299999999995     44.063650000000003     53.180050000000001
S      49.997500000000002     46.411049999999996     51.427549999999989
