18

C      48.769199999999991     48.056549999999994     47.434999999999995
C      48.264400000000009     47.246250000000003     48.638300000000001
C      49.388999999999996     49.281050000000000     47.328500000000005
C      48.654300000000006     47.969549999999998     49.720900000000000
C      48.036400000000000     47.570050000000002     46.266400000000004
C      47.263999999999996     46.092150000000004     48.557599999999994
C      49.660200000000003     49.837850000000003     48.533799999999999
C      49.235700000000008     49.360950000000003     49.751500000000007
C      47.177099999999996     46.484549999999999     46.205500000000001
C      46.674000000000007     45.867750000000001     47.432500000000005
H      49.794899999999998     49.804349999999999     46.403100000000002
H      48.185600000000008     47.972549999999998     50.739899999999999
H      47.821500000000000     48.126149999999996     45.266900000000007
H      47.233800000000002     45.532250000000005     49.593900000000005
H      50.282200000000003     50.796750000000003     48.549700000000001
H      49.525400000000005     50.017650000000003     50.631699999999995
H      46.585499999999996     46.305650000000000     45.260100000000001
H      45.717799999999997     45.203249999999997     47.432400000000001
