6

C      48.300549999999987     48.403199999999998     48.308599999999991
C      47.605750000000000     47.363100000000003     47.774100000000004
H      48.053250000000006     46.678500000000000     47.146500000000003
H      46.605850000000004     47.241700000000009     47.905600000000000
H      47.987049999999996     49.321500000000000     48.853499999999997
H      49.394149999999996     48.456800000000015     48.169100000000000
