40

C      47.780349999999999     48.153899999999993     47.016349999999989
C      48.403950000000002     47.983199999999997     45.585250000000002
C      51.907850000000003     49.807900000000004     48.026650000000004
C      48.564550000000004     48.636200000000002     48.104450000000000
C      49.677650000000007     48.755899999999997     45.084750000000000
C      50.850150000000006     49.434799999999996     48.769150000000010
C      51.682549999999999     49.667699999999996     46.637249999999995
C      50.017050000000005     48.916100000000000     47.775750000000002
C      50.481050000000003     49.045699999999997     46.384249999999994
C      46.852449999999997     47.248999999999995     47.289650000000009
C      45.926250000000003     46.691000000000003     46.312950000000001
C      46.611650000000004     46.753399999999999     44.932050000000004
C      47.906550000000003     47.262100000000004     44.556649999999991
C      46.383550000000007     47.281399999999991     48.667850000000001
C      45.054650000000002     46.753000000000000     48.957250000000002
C      44.274449999999995     46.103399999999993     47.949249999999992
C      44.696350000000002     46.254099999999994     46.618549999999999
C      47.168849999999999     47.845900000000000     49.821950000000001
C      48.342350000000003     48.428699999999992     49.536549999999991
C      49.139550000000007     49.015999999999991     50.805250000000001
C      50.327249999999999     49.796199999999999     50.283450000000002
C      51.200049999999997     49.971000000000004     51.541049999999998
H      52.746249999999996     50.319499999999991     48.496049999999997
H      52.310650000000003     49.976499999999987     45.835250000000002
H      48.446050000000007     47.112099999999998     43.680350000000004
H      44.770750000000000     46.459899999999990     49.950749999999999
H      43.253750000000004     45.699500000000000     48.026949999999999
H      46.814850000000000     48.170999999999992     50.837450000000004
H      48.377450000000003     49.835799999999992     51.022850000000005
H      49.572049999999997     48.400099999999995     51.570449999999994
H      49.669450000000005     50.778700000000001     50.164050000000003
H      43.899350000000005     45.554499999999990     45.110950000000003
H      51.323050000000002     48.204299999999989     44.037449999999993
H      52.005150000000008     49.159899999999993     51.579949999999997
H      50.465550000000000     50.319299999999984     52.319649999999996
H      51.839450000000006     50.744000000000000     51.193349999999995
H      49.356550000000006     49.505499999999998     44.352249999999998
O      45.791750000000000     46.200400000000002     44.245449999999991
O      44.087550000000000     45.221299999999999     45.888449999999992
O      50.466950000000004     47.820799999999991     44.171650000000000
