62

C      46.817299999999996     48.137349999999991     44.873645999999994
C      47.163400000000003     49.583449999999999     44.991545999999992
C      49.963200000000001     52.287350000000004     50.723745999999998
C      46.303600000000003     47.409049999999993     46.145745999999995
C      50.454900000000002     51.216849999999994     51.465246000000000
C      47.579099999999997     50.134649999999993     46.343045999999994
C      48.921099999999996     52.074150000000003     49.745545999999997
C      49.464199999999991     48.945350000000005     51.234245999999992
C      48.683799999999998     47.891850000000005     50.635045999999996
C      47.173600000000000     47.488050000000001     48.533645999999997
C      49.805700000000002     50.184849999999997     50.580846000000001
C      46.950600000000009     48.105350000000001     47.249445999999999
C      47.977499999999999     48.311949999999996     49.351245999999996
C      48.988700000000009     50.712450000000004     49.492545999999997
C      47.460100000000004     49.477350000000001     47.603845999999997
C      48.135400000000004     49.653350000000003     48.866245999999997
C      46.523000000000003     47.680949999999996     43.579045999999998
C      45.851100000000002     48.483850000000004     42.552045999999997
C      45.969400000000000     49.887950000000004     43.016945999999997
C      46.487000000000002     50.490350000000007     44.153645999999988
C      49.852000000000004     48.643550000000005     52.644445999999995
C      49.955199999999998     47.266050000000007     53.158746000000001
C      49.542999999999999     46.357450000000000     52.127145999999989
C      48.819100000000006     46.529049999999998     50.975946000000000
C      50.517000000000010     49.634150000000005     53.402645999999997
C      50.962999999999994     50.853049999999996     52.870545999999997
C      45.784300000000002     46.104950000000002     46.160545999999989
C      45.180999999999997     45.916550000000001     44.839846000000001
C      46.295400000000001     46.191749999999999     43.644845999999994
C      45.938700000000004     51.879549999999995     44.441145999999996
C      44.393500000000003     51.899450000000002     44.141646000000001
C      49.756799999999998     44.800950000000000     52.611745999999989
C      50.834899999999998     44.271649999999994     52.587945999999995
C      51.355500000000006     43.131150000000005     53.732745999999999
C      46.182600000000001     45.177949999999996     46.859345999999995
H      50.012900000000002     53.230549999999994     51.305645999999989
H      48.193600000000004     52.603949999999998     49.030345999999987
H      47.088399999999993     46.434250000000006     48.710645999999990
H      45.606999999999999     48.185950000000005     41.481445999999998
H      45.582000000000001     50.644750000000002     42.276345999999997
H      48.352000000000004     45.724149999999995     50.304445999999992
H      50.274999999999999     49.089349999999996     54.518554000000002
H      51.654200000000003     51.524550000000005     53.331645999999999
H      44.987500000000004     44.857749999999996     44.720945999999991
H      44.040399999999998     46.196749999999994     44.745646000000001
H      47.235300000000002     45.829949999999997     43.314345999999993
H      45.819699999999997     45.966049999999996     42.644045999999996
H      43.855100000000000     51.974549999999994     45.136046000000000
H      47.782600000000002     51.260850000000005     46.643145999999994
H      44.044800000000002     50.986050000000006     43.696445999999987
H      52.144900000000000     43.652850000000001     54.398800999999999
H      43.898699999999998     53.759349999999998     43.257145999999999
H      50.690200000000004     45.738249999999994     53.876646000000001
H      51.332700000000003     42.240650000000002     53.253145999999994
H      51.454599999999999     45.158349999999999     52.271945999999993
H      50.521400000000000     42.772050000000007     54.273945999999988
H      45.827300000000001     44.001050000000006     46.748045999999995
H      47.310000000000002     44.948049999999995     46.743845999999998
O      46.463600000000000     52.763549999999995     45.165146000000000
O      48.886099999999999     44.192149999999998     53.175545999999990
O      44.025199999999998     52.823350000000005     43.063945999999994
O      50.632100000000001     46.647549999999995     54.215145999999997
