97

C      48.674849999999978     52.785699999999991     48.139649999999996
C      49.850849999999994     53.526400000000010     48.315150000000003
C      51.349549999999994     49.619200000000006     50.267150000000001
C      52.117750000000001     50.661000000000001     50.936750000000004
C      48.607450000000000     51.567200000000000     48.963250000000002
C      50.031449999999992     49.900499999999994     49.761650000000003
C      51.867949999999993     52.063000000000002     50.735050000000001
C      49.917349999999999     51.233500000000006     49.578149999999994
C      50.852450000000005     52.392700000000005     49.846549999999993
C      47.564350000000005     53.052500000000009     47.178049999999999
C      47.727050000000006     54.206000000000003     46.278449999999992
C      49.193650000000005     54.835000000000008     46.339650000000006
C      50.126450000000006     54.464399999999998     47.297749999999994
C      52.071550000000002     48.365899999999996     50.267449999999997
C      53.005849999999995     48.029200000000003     51.229849999999999
C      53.315650000000005     48.932900000000004     52.209149999999994
C      52.985050000000001     50.233599999999996     52.126350000000002
C      46.560450000000003     52.135599999999997     46.962850000000003
C      45.341349999999991     52.706599999999995     46.095450000000000
C      45.549049999999994     54.007599999999996     45.417749999999998
C      46.536850000000001     54.831000000000003     45.616450000000000
C      47.600650000000002     50.537400000000005     48.514150000000001
C      46.496349999999993     51.110799999999998     47.952050000000000
C      48.915949999999995     48.997399999999999     49.669650000000004
C      48.834050000000005     48.009399999999999     50.555049999999994
C      51.726550000000003     47.300100000000000     49.181550000000001
C      52.998750000000001     46.837599999999995     48.428049999999999
C      45.338250000000002     50.056600000000003     47.948149999999998
C      53.639449999999997     46.625600000000006     51.475949999999997
C      44.291950000000000     44.271400000000000     47.859150000000000
C      44.834649999999996     45.200999999999993     48.793949999999995
C      44.488450000000000     47.935100000000006     45.041049999999998
C      43.375549999999990     44.668400000000005     46.830950000000001
C      44.961449999999999     46.574799999999996     48.357749999999996
C      43.741249999999994     46.619200000000006     45.196650000000005
C      44.777249999999995     48.188199999999995     46.368449999999996
C      43.615849999999995     46.095600000000005     46.485550000000003
C      44.534250000000000     46.960800000000006     47.115750000000006
C      44.184349999999995     42.869699999999995     48.229450000000000
C      45.252049999999997     42.364599999999996     49.187749999999994
C      45.689449999999994     43.226100000000002     50.280850000000001
C      45.384749999999997     44.645099999999999     50.179249999999996
C      43.358549999999994     41.806799999999996     47.567149999999998
C      44.019750000000002     40.460099999999997     47.460149999999999
C      45.312649999999991     40.046700000000001     47.835049999999995
C      45.798649999999995     41.193899999999999     48.586449999999999
C      42.290849999999992     42.340500000000006     46.752849999999995
C      42.331949999999992     43.691500000000005     46.598950000000002
C      46.550849999999997     42.747399999999999     51.328050000000005
C      47.176349999999999     43.662000000000006     52.229749999999996
C      46.625349999999997     45.015699999999995     52.103750000000005
C      45.657649999999990     45.520700000000005     51.291349999999994
C      45.853849999999994     49.248699999999999     46.794049999999999
C      44.417949999999990     48.730000000000004     43.812150000000003
C      43.538150000000002     50.118799999999993     44.031949999999995
H      52.456649999999996     52.654899999999998     51.473349999999996
H      49.361149999999995     55.799999999999997     45.764550000000000
H      51.282049999999998     54.619699999999995     46.659250000000000
H      53.776949999999999     48.756200000000007     53.160349999999994
H      44.779449999999997     51.762000000000000     45.567949999999996
H      44.708449999999999     54.325000000000003     44.736050000000006
H      49.694050000000004     47.799099999999996     51.168250000000000
H      47.936149999999998     47.572199999999995     50.593850000000003
H      54.198449999999994     47.019199999999998     48.713250000000002
H      52.796250000000001     46.550500000000000     47.327650000000006
H      53.036950000000004     45.820899999999995     48.650649999999999
H      47.250950000000003     56.650400000000005     45.316350000000000
H      45.259850000000000     49.222800000000007     48.683549999999997
H      54.149550000000005     45.983999999999995     50.725949999999997
H      54.625150000000005     47.008700000000005     51.658249999999995
H      53.019949999999994     45.958399999999997     52.086249999999993
H      44.760949999999994     52.701499999999996     46.912449999999993
H      45.516750000000002     47.414699999999996     48.844149999999999
H      43.961349999999996     45.736699999999999     44.421750000000003
H      46.106849999999994     49.711200000000005     45.649150000000006
H      43.521249999999995     39.945200000000000     46.481549999999999
H      45.922550000000001     39.349599999999995     47.422250000000005
H      46.630949999999999     40.698300000000003     49.128450000000001
H      41.375850000000000     41.758600000000001     46.266850000000005
H      41.374849999999995     43.854600000000005     46.182850000000002
H      47.764449999999997     43.338200000000001     53.127449999999996
H      47.075749999999999     45.456800000000001     52.933250000000001
H      45.088250000000002     46.406499999999994     51.618449999999996
H      47.330550000000002     40.867099999999994     52.041250000000005
H      46.959649999999996     48.939700000000002     46.746449999999996
H      43.968949999999992     48.115600000000001     42.839650000000006
H      45.439749999999989     49.127399999999994     43.348950000000002
H      42.745049999999992     49.927099999999996     44.684150000000002
H      43.203949999999992     50.691500000000005     43.139849999999996
H      44.009649999999993     51.050200000000004     44.360450000000000
H      44.383349999999993     50.487700000000004     47.856449999999995
N      50.698149999999998     53.605800000000002     49.285550000000001
O      47.859250000000003     49.308999999999997     48.743750000000006
O      50.694649999999996     46.962100000000007     48.865049999999997
O      46.300550000000001     56.232799999999997     45.452150000000003
O      53.279049999999998     51.102599999999995     52.978650000000002
O      47.185850000000002     41.461399999999998     51.188549999999992
