18

C      47.841199999999986     47.810899999999997     48.493765499999988
C      47.742500000000000     48.054100000000005     47.054665499999999
C      48.214899999999993     46.519700000000000     49.013065499999996
C      47.617700000000006     46.834600000000002     46.369565499999993
C      47.848199999999999     48.901200000000003     49.535565499999990
C      47.437099999999994     49.424000000000007     46.641265500000003
C      48.389900000000004     45.449800000000003     48.251765499999991
C      47.892400000000002     45.493800000000000     46.872465499999990
C      47.554899999999996     50.146100000000004     48.915865499999995
C      47.543600000000005     50.510499999999993     47.494665499999996
H      48.564000000000000     46.583300000000001     50.073665499999990
H      47.254299999999994     46.834300000000006     45.367765499999990
H      47.735700000000001     48.674800000000005     50.632234500000010
H      47.082799999999999     49.509900000000002     45.619465499999990
H      48.917200000000001     44.470900000000000     48.727065499999995
H      47.894200000000005     44.593200000000003     46.335165500000002
H      47.793100000000003     50.879199999999997     49.635665500000002
H      47.090399999999995     51.529100000000000     47.145765499999996
