6

C      48.268319999999996     47.702473999999995     48.442549999999990
C      47.443899999999999     47.942633999999998     47.533649999999994
H      49.152419999999999     47.113026000000005     48.170849999999994
H      47.834209999999999     47.516713999999993     49.560850000000002
H      46.847580000000001     48.886973999999995     47.626449999999998
H      47.599249999999998     47.450654000000000     46.439149999999998
