18

C      48.498999999999988     48.041574749999995     47.156649999999992
C      48.661199999999994     48.394874749999985     48.543549999999996
C      47.644199999999998     48.631074749999996     46.198350000000005
C      48.049999999999997     49.517574749999994     49.172650000000004
C      49.082499999999996     46.651774749999987     46.927450000000000
C      49.386099999999999     47.528174749999991     49.496250000000003
C      46.844499999999996     49.449874749999992     47.007950000000001
C      47.258699999999990     50.103374749999986     48.305250000000001
C      49.857299999999995     45.963874749999988     47.778149999999997
C      49.643199999999993     46.201274749999996     49.176150000000000
H      47.345500000000001     48.193674749999985     45.286950000000004
H      48.264299999999992     49.664374749999993     50.213949999999997
H      48.797399999999996     46.228674749999996     45.880749999999999
H      49.494999999999990     47.644874749999985     50.713049999999996
H      45.851900000000001     49.452274749999987     46.746150000000000
H      46.620400000000004     50.920325250000005     48.416049999999998
H      50.112099999999998     45.079674749999995     47.322850000000003
H      50.148099999999999     45.609774749999985     49.865449999999996
