18

C      48.020499999999991     47.647699999999993     48.586749999999995
C      47.342900000000000     47.837699999999998     47.384349999999998
C      47.784099999999995     46.541200000000003     49.512349999999998
C      46.079299999999996     47.294600000000003     47.188649999999996
C      49.493099999999998     48.012600000000006     48.581649999999996
C      47.906900000000000     49.165500000000009     46.783649999999994
C      46.633600000000001     45.922600000000003     49.134850000000000
C      45.827100000000002     46.111300000000000     47.901349999999994
C      50.061299999999989     49.018799999999999     47.936049999999994
C      49.139899999999997     49.763700000000000     47.074849999999998
H      48.553200000000004     45.751199999999997     50.011949999999999
H      45.525399999999998     47.629199999999997     46.399649999999994
H      49.839700000000001     47.029200000000003     49.294549999999987
H      47.366000000000000     49.760400000000004     45.988050000000001
H      46.072999999999993     45.321600000000004     49.930749999999989
H      44.872500000000002     45.563400000000001     47.373449999999991
H      51.127499999999998     49.189599999999999     48.044150000000002
H      49.399299999999997     50.678399999999996     46.545649999999995
