18

C      47.977399999999989     47.880899999999997     47.480654999999999
C      47.943100000000001     48.417299999999997     48.755725000000005
C      48.967100000000002     48.269700000000000     46.500754000000008
C      48.935300000000012     49.265599999999992     49.339424999999999
C      47.171000000000006     46.632199999999997     47.190735000000004
C      46.892899999999997     47.795100000000005     49.586235000000009
C      49.835099999999997     49.207400000000007     46.952436000000006
C      49.785500000000013     49.558199999999999     48.217425000000006
C      46.040000000000006     46.311300000000003     47.909405000000014
C      46.014200000000002     46.888000000000005     49.130655000000012
H      49.001599999999996     47.928699999999992     45.487704999999998
H      49.125300000000010     49.452600000000004     50.414375000000000
H      47.559300000000007     45.956000000000003     46.322455000000005
H      46.673800000000000     48.040700000000001     50.512295000000002
H      50.716899999999995     49.720900000000000     46.352576000000006
H      50.786100000000005     50.194699999999997     48.508385000000004
H      45.245800000000003     45.805300000000003     47.432515000000009
H      45.213899999999995     46.633099999999999     49.604825000000012
