18

C      47.582200000000000     47.346134999999990     47.436249999999994
C      48.593499999999999     48.419334999999997     47.162750000000003
C      46.161400000000008     47.488934999999991     47.192250000000001
C      47.918500000000002     49.681113000000003     46.883750000000006
C      48.194300000000005     46.136834999999998     47.891750000000002
C      49.899700000000003     48.229234999999996     47.401550000000000
C      45.669699999999999     48.730434999999993     46.810350000000000
C      46.485999999999997     49.857715000000006     46.780950000000004
C      49.439799999999998     46.276935000000002     48.802250000000001
C      50.317100000000003     47.012335000000000     48.112549999999999
H      45.319200000000002     46.803334999999997     47.088049999999996
H      48.728000000000002     50.498595000000002     46.977949999999993
H      47.682300000000005     45.296534999999999     48.275250000000000
H      50.856199999999994     49.026200999999993     47.529049999999998
H      44.702599999999997     48.798781999999996     46.454149999999998
H      45.966199999999994     50.703465000000001     46.324449999999999
H      49.414800000000007     45.436734999999992     49.675550000000001
H      51.297400000000003     47.027134999999994     48.671549999999996
