21

C      45.572614999999992     46.774649999999994     48.785199999999996
C      48.275345000000002     48.646250000000002     47.343600000000002
C      47.782245000000003     47.623649999999991     48.295900000000003
C      47.594965000000002     49.720849999999992     46.686800000000005
C      46.356258000000004     48.044049999999999     48.402500000000003
C      49.651235000000000     48.242749999999994     47.257700000000000
C      48.223305000000003     46.506850000000000     49.077300000000001
C      46.425256000000005     50.179650000000002     47.356800000000000
C      45.701687499999991     49.097749999999998     47.877200000000002
C      50.257565000000000     47.061549999999997     47.816600000000001
C      49.483904999999993     46.218649999999997     48.662700000000001
H      44.882514999999998     46.335850000000001     47.945000000000000
H      44.997614999999996     46.891649999999991     49.629199999999997
H      46.051551000000003     45.834650000000003     48.645600000000002
H      48.258344999999998     50.455950000000001     45.960799999999999
H      44.693114999999992     49.388849999999998     47.879899999999999
H      49.769575000000003     48.289049999999996     46.218299999999999
H      47.674005000000008     46.140050000000002     50.039200000000001
H      46.094048999999998     50.779550000000000     46.503300000000003
H      51.306885000000008     46.889850000000003     47.642299999999999
H      50.131594999999990     45.220450000000000     49.054300000000005
