18

C      48.045999999999992     47.125399999999992     47.423299999999990
C      47.726100000000002     48.542739999999995     47.526600000000002
C      49.054400000000001     46.672799999999995     46.567099999999996
C      48.354700000000008     49.485720000000001     46.719200000000001
C      46.829500000000010     46.322139999999997     47.801800000000000
C      46.903800000000004     49.110659999999996     48.590800000000002
C      49.891700000000000     47.687860000000001     46.155000000000001
C      49.603900000000010     49.143419999999992     46.296199999999999
C      45.898099999999999     46.866779999999999     48.775700000000001
C      46.045600000000007     48.261689999999994     49.158000000000001
H      50.830500000000001     47.346760000000003     45.797899999999998
H      49.046000000000006     45.766979999999997     45.939900000000002
H      48.223500000000001     50.596879999999999     46.913499999999999
H      46.641300000000001     45.403120000000001     46.963000000000001
H      46.955300000000008     50.260220000000004     48.684300000000007
H      50.639000000000010     49.870080000000002     45.828400000000002
H      45.169499999999999     46.109110000000001     48.954300000000003
H      45.563500000000005     48.491189999999989     50.202100000000002
