18

C      48.037250000000000     48.737849999999995     47.975149999999999
C      47.969549999999998     47.331349999999993     48.224950000000007
C      48.092849999999999     49.636249999999997     48.992549999999994
C      48.201549999999997     46.669249999999998     49.542649999999995
C      47.883250000000004     49.362949999999991     46.709350000000001
C      47.971149999999994     46.427249999999994     47.138050000000007
C      48.445949999999996     49.130649999999996     50.297349999999994
C      48.796549999999996     47.732149999999997     50.268550000000005
C      47.388050000000007     48.461949999999995     45.662450000000007
C      47.567450000000008     47.031950000000002     45.867750000000001
H      48.239750000000001     50.746050000000004     48.683250000000001
H      47.981750000000005     45.464849999999991     49.845550000000003
H      48.203450000000004     50.487649999999995     46.513649999999998
H      47.809849999999997     45.253949999999996     47.255250000000004
H      48.603949999999998     49.730749999999993     51.280450000000002
H      48.740549999999999     47.629849999999998     51.364149999999995
H      47.463650000000001     48.839049999999993     44.635850000000005
H      47.203450000000004     46.334150000000001     45.161150000000006
