6

C      48.345949999999988     48.033449999999988     47.524649999999987
C      47.544150000000002     47.800649999999997     48.450549999999993
H      48.941950000000006     49.055850000000000     47.473449999999993
H      48.292550000000006     47.704149999999998     46.482349999999997
H      47.058049999999994     46.944150000000000     48.323049999999995
H      47.679050000000004     47.929949999999998     49.517650000000003
