18

C      48.555549999999990     47.772649999999999     47.905349999999984
C      47.471949999999993     47.508150000000001     48.873450000000005
C      48.444549999999992     47.351050000000001     46.603749999999991
C      46.233049999999992     47.260350000000003     48.183549999999997
C      49.836349999999996     48.402049999999988     48.094650000000001
C      47.788449999999997     48.175250000000005     50.140550000000005
C      47.282550000000001     46.671450000000007     46.083649999999992
C      46.169449999999998     46.641950000000008     46.966650000000001
C      50.037749999999988     49.067949999999996     49.254249999999999
C      48.982050000000001     48.954050000000009     50.247450000000001
H      49.150250000000000     47.750950000000003     45.798349999999999
H      45.277749999999997     47.766249999999999     49.011849999999995
H      50.575549999999993     48.344850000000008     47.189250000000001
H      47.029249999999998     48.438049999999990     51.061850000000007
H      47.302749999999996     46.712550000000007     44.938149999999993
H      45.138149999999996     46.198050000000009     46.604749999999996
H      50.861850000000004     49.801949999999991     49.423850000000002
H      49.074849999999998     49.786850000000001     50.950649999999996
