8

C      48.114593999999997     47.358849999999990     48.432949999999991
C      48.036979000000002     48.465249999999997     47.268549999999998
H      49.115355000000001     46.979450000000000     47.907049999999998
H      47.054945000000025     46.541350000000001     48.381749999999997
H      47.890037500000005     47.836549999999995     49.503750000000004
H      48.813216000000004     48.270150000000001     46.496249999999996
H      46.884644999999999     48.335749999999997     46.943449999999999
H      48.461991000000005     49.458649999999999     47.656149999999997
