18

C      47.281499999999994     48.813649999999996     48.266799999999989
C      47.455799999999996     47.646650000000001     47.308000000000000
C      46.841700000000003     48.492049999999999     49.562599999999996
C      46.966099999999997     46.310849999999995     47.573299999999996
C      47.410100000000000     50.133249999999997     47.821499999999993
C      48.112599999999986     47.931949999999993     46.125599999999999
C      46.735600000000005     47.031649999999992     49.880199999999995
C      46.794799999999995     45.892949999999992     48.885899999999999
C      48.382000000000005     50.102449999999997     46.763599999999997
C      48.809500000000000     49.080949999999994     45.833999999999996
H      46.796300000000002     49.246350000000000     50.215799999999994
H      46.738000000000000     45.528749999999995     46.815099999999994
H      47.180999999999997     51.141849999999998     48.321300000000001
H      47.728699999999989     47.142949999999992     45.197600000000001
H      46.215100000000007     46.777250000000002     50.802399999999999
H      46.549899999999994     44.858150000000002     49.131700000000002
H      48.966799999999992     51.042250000000003     46.409100000000002
H      49.784899999999993     49.249749999999999     45.240999999999993
