18

C      47.998649999999998     48.508999999999986     47.437049999999992
C      48.006050000000002     47.513299999999994     48.668450000000007
C      46.744450000000001     48.727100000000000     46.877350000000000
C      47.063450000000003     46.638100000000001     49.094750000000005
C      49.194950000000006     49.186999999999991     47.010850000000005
C      49.281849999999991     47.512599999999999     49.340249999999997
C      45.733650000000011     47.844400000000000     47.376850000000005
C      45.754150000000010     46.809799999999989     48.299549999999996
C      50.079149999999998     49.528199999999991     47.992950000000008
C      50.283349999999999     48.537799999999997     49.073850000000000
H      46.606250000000003     49.187999999999995     45.813450000000003
H      47.306449999999998     45.741700000000002     49.683949999999996
H      49.236050000000006     49.731000000000002     46.060350000000000
H      49.447649999999996     46.911699999999989     50.186549999999997
H      44.877650000000003     47.894900000000000     46.585750000000004
H      44.777550000000005     46.315700000000000     48.655950000000004
H      50.758350000000007     50.258299999999998     47.977350000000001
H      51.222449999999995     48.558599999999991     49.553849999999997
