18

C      47.543634999999988     48.813849999999995     47.916499999999992
C      48.148734999999988     47.488149999999997     48.318299999999994
C      46.655734999999993     48.572749999999999     46.724599999999995
C      48.053034999999994     46.299450000000000     47.429699999999997
C      48.123835000000000     49.939049999999995     48.445999999999998
C      49.246509000000003     47.641449999999999     49.148499999999999
C      46.190834999999993     47.277050000000003     46.316699999999997
C      46.884834999999995     46.132550000000002     46.759899999999995
C      48.879034999999988     50.031950000000002     49.653499999999994
C      49.720981000000002     48.876849999999990     49.707599999999999
H      46.072035000000000     49.214649999999992     45.936499999999995
H      48.792734999999993     45.393050000000002     47.705899999999993
H      47.770434999999992     50.860450000000000     48.014699999999998
H      49.894292000000007     46.996250000000003     48.727199999999996
H      45.343334999999996     47.248049999999999     45.623099999999994
H      46.747834999999995     45.139550000000000     46.397799999999997
H      49.230967000000007     50.790849999999999     50.297399999999996
H      50.656665000000004     48.767849999999996     50.376900000000006
