18

C      48.715599999999995     48.484499999999997     47.761699999999990
C      47.773699999999998     47.660800000000009     48.511500000000012
C      49.731900000000003     47.686400000000006     47.092699999999994
C      48.111600000000003     46.317700000000002     48.820599999999999
C      48.514200000000002     49.826499999999996     47.311599999999999
C      46.545900000000003     48.283900000000003     48.573499999999996
C      49.931400000000004     46.268900000000002     47.135000000000005
C      49.025299999999994     45.541600000000003     48.045699999999997
C      47.442799999999998     50.541300000000007     47.875500000000002
C      46.352600000000002     49.649200000000008     48.274400000000000
H      50.596899999999998     48.094499999999996     46.590400000000002
H      47.287700000000001     45.880099999999999     49.560600000000008
H      48.955599999999997     50.201899999999995     46.439399999999992
H      45.450899999999997     47.807900000000004     48.673100000000005
H      50.707900000000002     45.717500000000001     46.524900000000002
H      49.209099999999999     44.352100000000007     47.996400000000008
H      47.145800000000001     51.647899999999993     47.842600000000004
H      45.292099999999998     50.072800000000001     48.234300000000005
