18

C      48.672599999999989     47.524349999999998     47.385199999999990
C      47.480199999999996     48.166649999999990     48.183099999999996
C      49.309300000000007     46.382649999999998     48.136899999999997
C      46.734999999999999     47.507450000000006     49.190199999999997
C      49.097999999999999     48.366550000000004     46.364899999999999
C      46.899100000000004     49.393550000000005     47.931100000000001
C      48.833399999999997     46.071449999999999     49.410799999999995
C      47.417699999999996     46.503749999999997     49.770099999999999
C      48.440500000000000     49.566150000000007     46.177000000000000
C      47.349599999999995     50.221950000000007     46.794800000000002
H      50.088300000000004     45.676249999999996     47.756100000000004
H      45.911699999999996     47.961449999999999     49.646900000000002
H      49.823800000000006     47.895949999999999     45.724400000000003
H      46.018100000000004     49.710650000000001     48.617699999999999
H      48.470799999999997     44.957750000000004     49.749899999999997
H      47.168800000000005     46.089150000000004     50.800500000000000
H      49.153199999999998     49.869050000000001     45.199500000000000
H      46.681700000000006     51.042249999999996     46.600900000000003
