18

C      47.495869999999982     48.439899999999987     48.029849999999996
C      48.718269999999997     47.925659999999993     48.747350000000004
C      46.163869999999996     48.318249999999999     48.560049999999997
C      48.497769999999996     46.867579999999997     49.660450000000004
C      47.696069999999999     49.430039999999998     47.019950000000001
C      50.002157000000004     47.847439999999999     47.972050000000003
C      46.023769999999992     47.424379999999999     49.651949999999992
C      47.213769999999990     46.750729999999997     50.086649999999999
C      48.752469999999995     49.322669999999988     46.193150000000003
C      49.885309000000014     48.382819999999995     46.700449999999996
H      45.168669999999999     48.702430000000000     48.360650000000000
H      49.314355000000006     46.107029999999995     50.003149999999998
H      47.002969999999998     50.335470000000001     47.259050000000002
H      50.874929999999999     47.402769999999997     48.543450000000000
H      45.125070000000001     46.980199999999996     50.219349999999999
H      47.457369999999990     45.664529999999999     50.774949999999997
H      48.931369999999994     50.043939999999999     45.225050000000003
H      50.736860000000000     48.506380000000007     45.974649999999997
