6

C      47.892999999999994     48.709699999999991     47.724349999999994
C      47.883099999999999     47.541700000000006     48.466449999999995
H      47.134799999999998     48.868899999999996     46.988450000000000
H      47.494399999999999     46.578999999999994     48.059449999999998
H      48.865200000000002     47.451999999999998     49.011550000000000
H      48.747699999999995     49.421000000000006     47.727750000000000
