22

C      46.654149999999994     50.265500000000003     46.646849999999993
C      47.917450000000002     48.152999999999999     47.371849999999995
C      48.451650000000001     48.112400000000001     48.730149999999995
C      47.239249999999998     47.066700000000004     46.883550000000000
C      48.746350000000007     46.887099999999997     49.635050000000007
C      47.679249999999996     49.244999999999997     46.371650000000002
C      48.879549999999995     49.468200000000003     48.976649999999992
C      47.827449999999999     45.869000000000007     47.427149999999997
C      48.464050000000000     45.726800000000004     48.743250000000003
C      49.076450000000008     49.749299999999998     46.410849999999996
C      49.543450000000007     49.942200000000007     47.652950000000004
H      46.331649999999996     50.501399999999997     45.647950000000002
H      46.727450000000005     51.072600000000001     47.529849999999996
H      45.683350000000004     49.739399999999996     46.961449999999999
H      46.721249999999998     46.686600000000006     46.048749999999998
H      49.295349999999999     46.823600000000006     50.706949999999999
H      47.680050000000008     48.764299999999999     45.293050000000001
H      49.691150000000007     49.835200000000007     49.746350000000000
H      47.362549999999999     44.927399999999999     47.002449999999996
H      49.501750000000001     45.196500000000007     48.859849999999994
H      49.884650000000008     49.704900000000002     45.677549999999997
H      50.316649999999996     50.633299999999998     48.104550000000003
