18

C      48.577799999999989     48.022549999999995     48.629999999999995
C      47.449799999999996     48.066949999999999     47.568599999999989
C      48.848900000000000     47.143849999999993     49.571799999999996
C      47.033799999999999     46.697049999999997     47.504599999999996
C      49.146900000000002     49.352550000000001     48.807499999999990
C      47.270699999999998     48.998349999999995     46.544699999999992
C      48.314399999999999     45.858950000000000     49.545899999999989
C      47.392200000000003     45.698950000000004     48.424999999999997
C      48.908500000000004     50.329749999999997     47.750099999999989
C      48.214199999999998     50.060650000000003     46.482799999999997
H      49.500299999999996     47.426350000000006     50.375000000000000
H      46.380099999999999     46.425450000000005     46.781399999999991
H      49.619900000000001     49.782450000000004     49.883200000000002
H      46.475700000000003     48.780549999999998     45.625000000000000
H      48.769100000000009     45.037550000000003     50.203899999999990
H      47.288400000000003     44.638749999999995     48.069299999999998
H      48.920800000000000     51.361250000000005     48.220500000000001
H      48.009799999999998     50.849150000000002     45.652499999999989
