5

C      48.061799999999991     47.812894999999990     48.054399999999987
H      47.892899999999997     47.079554999999999     48.670600000000000
H      48.259300000000010     48.920445000000001     48.528799999999997
H      47.087299999999999     47.753594999999997     47.405699999999996
H      48.912700000000001     47.947144999999999     47.329400000000000
