18

C      48.666744999999985     48.647199999999984     47.634899999999995
C      47.362644999999993     48.294100000000000     48.293300000000002
C      49.857444999999984     49.111400000000003     48.275099999999995
C      47.265494999999994     48.780100000000004     49.617199999999997
C      48.670954999999992     48.229299999999995     46.200499999999991
C      46.247383999999990     47.640500000000003     47.608400000000003
C      49.646894999999986     49.291600000000003     49.636799999999994
C      48.425014999999995     49.155400000000000     50.291399999999996
C      47.525444999999991     47.669799999999995     45.550399999999996
C      46.425115999999996     47.148600000000002     46.288100000000000
H      50.775624999999991     48.998599999999996     47.801199999999994
H      46.288910999999992     48.593099999999993     50.101100000000002
H      49.431884999999994     48.464799999999997     45.503000000000000
H      45.224375000000009     47.697400000000002     47.861899999999991
H      50.529424999999989     49.388800000000003     50.281599999999997
H      48.388314999999992     49.472300000000004     51.423699999999997
H      48.171154999999992     47.432599999999994     44.576300000000003
H      45.625875000000015     46.527699999999996     45.611499999999992
