18

C      48.564199999999985     48.800499999999992     48.208999999999989
C      47.911099999999998     47.444400000000002     47.944400000000002
C      47.944199999999995     49.431399999999996     49.268799999999999
C      46.761199999999995     47.074399999999997     48.841499999999996
C      49.578899999999997     49.567900000000002     47.581000000000003
C      48.593999999999987     46.668099999999995     46.985900000000001
C      46.953499999999998     48.927300000000002     50.082500000000010
C      46.194399999999995     47.732799999999997     49.831599999999995
C      49.894899999999986     48.798899999999996     46.374700000000004
C      49.391999999999996     47.501700000000000     46.134200000000007
H      48.409599999999998     50.417599999999993     49.526400000000010
H      46.183799999999998     46.066599999999994     48.608300000000014
H      49.894600000000004     50.442599999999999     48.158200000000008
H      48.214899999999993     45.557400000000001     46.700400000000002
H      46.572399999999995     49.733699999999999     50.851299999999995
H      45.206499999999998     47.445000000000000     50.311400000000006
H      50.793500000000002     49.028399999999998     46.016599999999997
H      49.858799999999995     46.991199999999999     45.148700000000005
