6

C      47.477199999999996     47.957394999999991     47.613749999999996
C      48.558199999999992     48.044095000000006     48.235149999999997
H      47.016799999999996     46.813904999999998     47.122149999999998
H      46.841900000000003     48.810494999999996     47.543050000000001
H      49.158099999999997     47.110835000000002     48.514749999999999
H      48.834700000000005     49.186095000000002     48.877850000000002
