18

C      48.147699999999993     48.577699999999993     48.636999999999993
C      48.116900000000001     47.872000000000000     47.298699999999997
C      49.364500000000007     48.172300000000000     49.441299999999998
C      48.905500000000004     46.835499999999996     46.876700000000000
C      47.059200000000004     49.493000000000002     48.782100000000000
C      47.209699999999998     48.363699999999994     46.318299999999994
C      50.156199999999998     47.019999999999996     48.941399999999987
C      49.866100000000003     46.466600000000000     47.694399999999995
C      45.964900000000000     49.736399999999996     47.970999999999997
C      45.864300000000000     48.825399999999995     46.880199999999995
H      49.109800000000007     48.268400000000000     50.671000000000006
H      48.755600000000001     46.199399999999997     46.016399999999997
H      47.020700000000005     49.571400000000004     49.774200000000000
H      47.155699999999996     48.285999999999994     45.328999999999994
H      50.997000000000000     46.547100000000000     49.383499999999998
H      50.628000000000000     45.667600000000000     47.337499999999999
H      45.124800000000000     50.332400000000000     48.342299999999994
H      45.003000000000000     49.267800000000001     46.151799999999994
