5

C      47.756900000000002     47.786849999999987     47.881599999999999
H      47.840299999999999     48.156350000000003     48.959100000000007
H      47.247600000000006     48.752350000000007     47.808199999999999
H      47.088400000000007     47.247649999999993     47.040899999999993
H      48.911599999999993     47.770949999999999     47.747600000000006
