18

C      48.350200000000001     48.766249999999985     48.062349999999988
C      47.900500000000008     47.311250000000001     48.055149999999998
C      48.694599999999994     49.518650000000008     49.213049999999996
C      47.397300000000001     46.924750000000003     49.291049999999998
C      48.704699999999988     49.375249999999994     46.915149999999997
C      47.437200000000004     46.520150000000001     46.870450000000005
C      48.703199999999995     48.707049999999995     50.423249999999996
C      48.113799999999998     47.368650000000002     50.480050000000006
C      48.389400000000009     48.545050000000003     45.840950000000007
C      48.169300000000007     47.144549999999995     45.820949999999996
H      49.406999999999996     50.300750000000008     49.158450000000002
H      46.593000000000004     46.078450000000004     49.465050000000005
H      48.931899999999999     50.524150000000006     46.760750000000002
H      46.818799999999996     45.475849999999994     46.807649999999995
H      48.992599999999996     49.255749999999992     51.221550000000008
H      47.871000000000009     46.676349999999999     51.253249999999994
H      48.548199999999994     49.060249999999996     44.746750000000006
H      48.164400000000001     46.421650000000000     44.820549999999997
