18

C      48.548099999999998     48.354545000000002     48.679649999999995
C      47.528100000000002     48.634565000000009     47.700650000000003
C      49.800000000000011     48.365774999999999     48.000750000000004
C      47.710200000000000     48.695005000000009     46.219650000000001
C      48.370400000000004     47.722075000000004     50.081450000000004
C      46.137700000000002     48.844405000000009     48.383250000000004
C      49.851400000000012     47.928224999999998     46.623850000000004
C      48.838399999999993     47.920695000000009     45.739750000000001
C      47.205800000000004     47.709614999999999     50.340650000000004
C      46.103600000000000     48.355225000000004     49.610350000000004
H      50.837999999999994     48.328535000000002     48.475250000000003
H      46.953200000000002     48.943704999999994     45.551749999999998
H      49.127499999999998     48.035745000000006     50.769750000000002
H      45.162000000000006     48.885684999999995     47.919249999999998
H      50.804100000000005     47.181085000000010     46.592950000000002
H      48.992900000000006     47.561014999999998     44.763449999999999
H      46.942200000000007     47.056295000000006     51.236550000000001
H      45.253100000000003     48.235365000000002     50.249249999999996
