59

C      45.590249999999990     48.589699999999993     47.722049999999996
C      45.757649999999998     47.192500000000003     48.210950000000004
C      53.307749999999999     51.320299999999996     45.713550000000005
C      46.460650000000001     49.612000000000002     47.203050000000012
C      53.842550000000003     50.112599999999993     46.433350000000011
C      46.658550000000005     46.024099999999997     47.847650000000009
C      52.500249999999994     48.353500000000004     47.847750000000012
C      51.036949999999990     48.016600000000004     48.099850000000011
C      52.566149999999993     49.559199999999997     46.985250000000001
C      47.897850000000005     49.561100000000003     47.319850000000010
C      49.894350000000003     48.758299999999998     47.692150000000005
C      51.435549999999999     50.400900000000000     46.540250000000007
C      48.829149999999998     50.591000000000001     46.836750000000002
C      50.059449999999998     50.014999999999993     46.954850000000000
C      44.170150000000000     49.044800000000002     47.835050000000003
C      43.378649999999993     48.345399999999991     48.729250000000000
C      43.871449999999996     47.620799999999996     49.812350000000002
C      45.140649999999994     46.998399999999997     49.448850000000000
C      53.453049999999998     47.205099999999995     48.003450000000008
C      53.312349999999995     45.897299999999994     48.354750000000003
C      51.912849999999992     46.005400000000002     48.898850000000003
C      50.798050000000003     46.609800000000000     48.376350000000009
C      43.541449999999998     49.943499999999993     46.872450000000008
C      42.123449999999998     49.920999999999999     46.686550000000004
C      41.411450000000002     49.623699999999992     47.854150000000011
C      41.783649999999994     48.652899999999995     48.528950000000002
C      45.890550000000005     50.537799999999997     46.245850000000011
C      44.477649999999997     50.805699999999995     46.198750000000011
C      45.098349999999996     45.745500000000000     50.131450000000008
C      45.148849999999996     44.370299999999993     49.325949999999999
C      55.069749999999999     49.478599999999993     46.101350000000004
C      46.188749999999999     44.467399999999991     48.202050000000007
C      51.804349999999999     45.005000000000003     50.103950000000005
H      53.838750000000005     51.539899999999996     44.736950000000000
H      47.020949999999999     45.882299999999994     46.854850000000006
H      53.912449999999993     52.428699999999999     46.096950000000000
H      48.489949999999993     51.734400000000001     46.288650000000011
H      43.313949999999998     47.076000000000001     50.618150000000007
H      54.369749999999996     47.727200000000003     48.464950000000009
H      53.920149999999992     44.992200000000004     48.559450000000005
H      49.687749999999994     46.289799999999993     48.602050000000013
H      41.530749999999998     50.775399999999998     46.344050000000003
H      40.205349999999996     49.877900000000004     47.848350000000003
H      40.976149999999997     48.003499999999995     48.811550000000004
H      46.575850000000003     51.128300000000003     45.558750000000011
H      47.536050000000003     46.181800000000003     48.305850000000000
H      44.113149999999997     51.419000000000004     45.354350000000004
H      44.262850000000000     44.041599999999995     48.844750000000012
H      45.576149999999998     43.571300000000001     50.085350000000012
H      55.223950000000002     48.477100000000000     46.490950000000005
H      55.794650000000004     49.870600000000003     45.347050000000003
H      45.934250000000006     43.766799999999996     47.348950000000009
H      47.031849999999999     44.142000000000003     48.665450000000000
H      51.766649999999998     45.761000000000003     50.920050000000010
H      52.506450000000001     44.201299999999996     50.201750000000011
H      50.813949999999998     44.645899999999990     49.920950000000012
N      51.897849999999998     51.304299999999991     45.799550000000004
N      48.527050000000003     48.549100000000003     47.718050000000012
O      44.655949999999997     45.660899999999991     51.263050000000000
