18

C      47.799399999999991     48.725744999999989     47.181595499999993
C      47.637599999999992     47.322434999999999     47.666265499999994
C      48.801599999999993     48.836844999999997     46.182215499999998
C      48.265799999999999     46.092495000000000     47.118475500000002
C      46.937799999999996     49.714695000000006     47.755675499999995
C      46.692099999999996     47.033595000000005     48.640825499999998
C      49.830100000000002     47.864575000000002     46.371405500000002
C      49.388800000000003     46.377764999999997     46.355995499999999
C      46.276700000000005     49.376975000000002     48.995375500000002
C      46.034099999999995     48.065725000000000     49.414035499999997
H      48.902300000000011     49.831975000000000     45.760554499999998
H      48.227699999999999     45.171144999999996     47.749445499999993
H      46.966399999999993     50.828855000000004     47.308825499999998
H      46.724699999999999     46.005795000000006     48.764705499999991
H      50.632800000000003     48.188595000000007     46.661875500000001
H      49.939200000000000     45.741045000000000     45.927605499999999
H      45.802899999999994     50.163815000000000     49.648245500000002
H      45.367199999999997     47.796975000000003     50.239445500000002
