14

C      47.066999999999993     47.292499999999997     49.387099999999997
C      46.652600000000000     48.400100000000002     48.727800000000002
C      47.121299999999998     48.880099999999999     47.499400000000009
C      48.406799999999997     48.511700000000005     47.116600000000005
C      49.070699999999995     47.497900000000001     47.803500000000000
C      48.414600000000000     46.987500000000004     48.942999999999998
C      48.963200000000001     48.754000000000005     46.041000000000011
H      46.653300000000002     46.980699999999999     50.463200000000001
H      45.861600000000003     48.813700000000004     49.316600000000008
H      46.467599999999997     49.571700000000007     47.099800000000002
H      50.138399999999997     47.285899999999998     47.635100000000008
H      48.846399999999996     49.930599999999998     45.536799999999999
H      50.018899999999995     48.772000000000006     45.997500000000002
H      48.660400000000003     46.069400000000002     49.504400000000004
