18

C      47.768149999999991     47.897899999999986     47.833749999999995
C      48.147050000000000     48.979399999999998     48.694049999999997
C      46.790349999999997     48.070300000000003     46.784649999999999
C      46.233550000000001     49.984999999999999     48.121250000000011
C      48.213150000000006     46.521299999999997     47.808250000000001
C      49.263050000000000     48.728399999999993     49.427150000000005
C      46.138849999999998     49.270099999999999     46.904450000000004
C      47.509250000000002     50.363799999999998     48.792049999999996
C      49.140149999999998     46.182800000000000     48.760650000000005
C      49.655650000000001     47.364799999999995     49.374150000000000
H      47.403449999999999     50.866900000000001     49.665349999999997
H      46.683950000000003     47.245399999999997     46.040550000000003
H      47.536849999999994     45.837499999999999     47.202850000000005
H      49.895549999999993     49.538600000000002     49.882349999999995
H      45.568750000000001     49.656199999999998     46.063150000000000
H      45.374050000000004     50.647999999999996     48.449449999999999
H      49.728850000000001     45.133099999999999     48.650749999999995
H      50.625949999999996     47.165599999999998     49.959449999999997
