32

C      49.880749999999992     51.819749999999999     47.496749999999984
C      48.286550000000005     47.302610000000001     48.147549999999995
C      48.865949999999998     46.520449999999997     47.013549999999995
C      51.445250000000001     50.078850000000003     46.127549999999999
C      48.810850000000002     48.735150000000004     48.405349999999999
C      50.198450000000008     46.903459999999995     46.495949999999993
C      50.476750000000010     50.451849999999993     47.195349999999991
C      49.839250000000007     49.208650000000006     47.409049999999993
C      50.524050000000003     48.144449999999992     46.661050000000003
C      47.238350000000011     46.684870000000004     48.755949999999999
C      46.939850000000007     45.245999999999995     48.568749999999994
C      47.537850000000006     44.590209999999999     47.463549999999998
C      48.439050000000009     45.256050000000002     46.589749999999995
C      46.149749999999997     47.522300000000001     49.455950000000001
C      44.870850000000004     46.984999999999999     49.814449999999994
C      44.726950000000002     45.612340000000003     49.614649999999997
C      45.815650000000005     44.751570000000001     49.305049999999994
C      47.876750000000001     49.421750000000003     49.094949999999997
C      46.547850000000011     48.902749999999997     49.338949999999997
H      49.538049999999998     51.769850000000005     48.511749999999992
H      50.752850000000009     52.503450000000001     47.562849999999997
H      52.149050000000003     50.794849999999997     45.801749999999998
H      50.859750000000005     46.146299999999997     46.011949999999999
H      47.401150000000001     43.496549999999999     47.584850000000003
H      48.836350000000010     44.705590000000001     45.644750000000002
H      44.060250000000011     47.519859999999994     50.355249999999998
H      43.850949999999997     45.033479999999997     50.101450000000000
H      45.648049999999998     43.795209999999997     49.357749999999996
H      48.928150000000002     52.032550000000001     47.011749999999992
H      47.868650000000002     50.532650000000004     49.309349999999995
H      45.884450000000001     49.751249999999999     49.826149999999998
N      51.481549999999999     48.769649999999999     45.902249999999995
