18

C      48.171199999999985     48.600799999999992     48.863449999999993
C      46.992499999999993     47.857200000000006     48.184449999999998
C      49.287000000000006     47.730400000000003     49.195049999999995
C      46.856699999999989     46.512900000000002     48.349350000000001
C      48.655199999999994     49.879200000000004     48.668049999999994
C      46.340400000000002     48.638800000000003     47.220349999999996
C      49.000900000000001     46.457200000000000     49.355449999999990
C      47.890699999999995     45.802000000000000     48.923649999999995
C      47.926000000000002     50.586800000000004     47.654449999999997
C      46.832399999999993     49.902800000000006     47.016350000000003
H      50.452200000000005     48.055199999999999     49.408950000000004
H      46.098900000000000     46.050100000000000     47.749949999999998
H      49.709100000000007     50.030000000000008     48.783349999999999
H      45.547799999999995     48.208900000000000     46.617149999999995
H      49.912999999999997     45.977000000000004     49.692949999999996
H      47.753399999999999     44.576200000000007     48.800150000000002
H      48.688999999999993     51.423799999999993     47.392949999999999
H      45.985999999999990     50.256499999999996     46.307050000000004
