38

C      46.729049999999994     47.430599999999991     50.133679999999998
C      45.682350000000000     48.042900000000003     49.307720000000010
C      49.726450000000000     48.157100000000000     46.068370000000009
C      48.573449999999994     48.666799999999995     45.370770000000007
C      48.119350000000004     47.510599999999997     49.682020000000009
C      45.799450000000007     48.294199999999996     47.912330000000004
C      49.436549999999997     47.569599999999994     47.392620000000008
C      47.527550000000005     49.069499999999991     46.211190000000009
C      48.336550000000003     47.895599999999988     48.251660000000008
C      47.122850000000000     48.445699999999995     47.429950000000005
C      46.393350000000005     47.549999999999997     51.543340000000008
C      45.182650000000002     48.191800000000001     52.106320000000004
C      44.218150000000001     48.419499999999999     51.103240000000007
C      44.349450000000004     48.036699999999996     49.727070000000005
C      51.119750000000010     48.312199999999997     45.551920000000010
C      51.284150000000011     48.811199999999999     44.267071000000008
C      50.185450000000003     49.472499999999997     43.574850000000019
C      48.841849999999994     49.430699999999995     44.113545000000009
C      48.923250000000003     46.920499999999997     50.717210000000009
C      48.489750000000001     46.540099999999995     51.961150000000011
C      47.250150000000005     46.972799999999999     52.522500000000015
C      50.566749999999999     46.623300000000000     50.631149999999998
C      51.469850000000001     47.357999999999997     51.428780000000010
H      44.920950000000005     48.599199999999996     47.351020000000005
H      50.271850000000001     47.196399999999997     48.021760000000008
H      46.711650000000006     49.847499999999997     45.905000000000008
H      45.036349999999999     48.351399999999998     53.148710000000015
H      43.346249999999998     48.642600000000002     51.499600000000008
H      43.739950000000007     48.057899999999997     48.776850000000003
H      51.832450000000009     47.924099999999996     46.253690000000006
H      52.653750000000002     48.919699999999999     44.210431000000007
H      48.065049999999999     50.257000000000005     43.761474000000007
H      49.029650000000004     45.742999999999995     52.744970000000016
H      46.846650000000004     46.472299999999997     53.351750000000003
H      50.600350000000006     45.955299999999994     49.845620000000004
H      51.113749999999996     47.861800000000002     52.337490000000010
H      52.438850000000002     47.482599999999998     51.160780000000010
O      50.695850000000007     50.075599999999994     42.648249999999997
