18

C      48.307349999999985     47.283749999999998     47.668849999999992
C      48.456350000000000     48.677049999999994     47.217850000000006
C      49.640450000000001     47.061149999999998     48.100050000000003
C      49.511449999999996     49.558449999999993     47.711350000000003
C      47.232749999999996     46.583150000000003     46.828750000000007
C      47.331950000000006     49.486050000000006     46.811349999999997
C      50.345450000000000     47.771450000000002     49.194849999999995
C      50.481949999999998     49.114450000000005     48.698250000000009
C      46.150049999999993     47.427649999999986     46.461950000000009
C      46.189350000000005     48.826349999999991     46.418950000000002
H      47.141850000000005     50.498850000000004     46.132550000000002
H      49.722350000000006     45.941749999999999     48.147349999999996
H      49.056849999999997     50.589449999999999     47.829650000000008
H      47.080550000000002     45.410550000000001     46.827149999999996
H      45.176950000000005     49.493349999999992     46.055450000000000
H      50.917450000000002     47.236549999999994     49.944550000000000
H      50.911050000000003     49.890949999999989     49.282550000000008
H      45.082549999999998     46.789450000000002     46.357350000000004
