18

C      48.110349999999997     48.590549999999986     48.374699999999990
C      47.158149999999999     48.042850000000001     47.411200000000001
C      48.219649999999994     47.916950000000000     49.802900000000001
C      46.533449999999995     46.879549999999995     47.872899999999994
C      49.221250000000005     49.329250000000002     47.937300000000000
C      47.115050000000004     48.736450000000005     46.132399999999997
C      47.486449999999998     46.792050000000003     50.102699999999992
C      46.517649999999996     46.360249999999994     49.212299999999992
C      49.361849999999997     49.966949999999997     46.658399999999993
C      48.217850000000006     49.543049999999994     45.784799999999997
H      48.971250000000005     48.559150000000002     50.291000000000004
H      46.443050000000007     46.052449999999993     47.296100000000003
H      49.989349999999995     49.534350000000003     48.711199999999998
H      46.646949999999997     48.310850000000002     45.238099999999996
H      47.544550000000008     46.417050000000003     51.252000000000002
H      45.877749999999999     45.456950000000006     49.484100000000005
H      50.122250000000001     50.543049999999994     46.379100000000001
H      48.331849999999996     49.867350000000002     44.747999999999998
