44

C      48.974274999999984     46.672399999999996     47.791449999999998
C      48.469514999999987     45.872400000000006     48.912049999999994
C      45.891419999999989     49.679200000000002     49.527649999999994
C      48.205054999999987     47.797500000000007     47.269149999999996
C      47.544614999999993     46.311399999999999     50.029849999999996
C      46.735244999999992     49.506200000000000     48.307350000000000
C      45.956727999999991     48.463700000000010     50.211550000000003
C      47.071924999999993     48.078700000000005     48.251849999999990
C      46.885124999999988     47.581799999999994     49.607549999999989
C      49.932254999999984     46.298099999999998     46.794349999999994
C      50.439794999999989     45.081700000000005     46.849949999999993
C      49.669034999999987     44.022900000000000     47.689849999999993
C      48.893894999999986     44.441800000000008     48.810350000000000
C      50.161964999999988     47.049500000000002     45.495849999999990
C      51.121134999999981     46.574800000000003     44.518450000000001
C      51.560684999999992     45.246000000000002     44.845349999999996
C      51.409584999999993     44.451900000000002     46.020649999999989
C      49.727294999999984     48.472300000000004     45.649050000000003
C      48.594604999999987     48.777800000000006     46.348249999999993
C      47.963884999999991     50.120100000000001     46.137249999999995
C      47.461464999999990     50.616400000000006     47.667450000000002
C      46.818174999999989     51.971700000000006     47.598050000000001
C      45.068645000000004     48.272200000000005     51.449149999999989
C      46.735324999999989     49.683399999999999     45.259450000000001
C      46.866974999999989     45.530999999999999     50.729749999999996
H      45.637749899999989     50.738400000000006     49.895949999999999
H      49.595154999999991     42.911999999999999     47.785849999999996
H      48.538294999999991     43.785600000000002     49.479649999999992
H      51.124824999999987     47.444900000000004     43.861050000000006
H      52.071454999999986     44.872100000000003     43.910950000000000
H      51.811854999999994     43.521900000000002     46.224849999999989
H      50.078374999999994     49.248799999999996     44.930949999999996
H      48.604274999999987     51.010100000000001     45.559649999999991
H      48.356234999999991     50.601500000000001     48.419749999999993
H      45.798593999999987     52.336400000000005     47.753149999999991
H      45.102944999999991     49.125000000000007     52.138949999999994
H      43.928545000000014     48.232000000000006     51.173349999999999
H      46.445165999999986     48.575099999999999     44.817250000000001
H      46.953184999999991     49.622199999999999     44.157550000000001
H      45.875435999999986     50.040600000000005     45.551749999999998
H      46.355937999999988     45.703600000000002     51.732349999999997
H      45.008445000000009     47.161200000000001     51.684249999999992
H      46.401729999999986     45.018599999999999     49.919349999999994
O      47.371094999999990     53.088000000000001     47.514349999999993
