18

C      48.124099999999991     48.464049999999993     48.473999999999997
C      47.594899999999996     47.500149999999998     47.453000000000003
C      49.422200000000004     48.344349999999999     48.894400000000005
C      48.358099999999993     46.479249999999993     46.816800000000001
C      47.275499999999994     49.443049999999999     49.025700000000001
C      46.264200000000002     47.914749999999998     47.028499999999994
C      50.112300000000005     47.490749999999998     48.105199999999996
C      49.659199999999998     46.362949999999998     47.250399999999999
C      46.031999999999996     49.865049999999997     48.571899999999999
C      45.501400000000004     48.980950000000000     47.585700000000003
H      49.605999999999995     49.002049999999997     49.765699999999995
H      48.110399999999998     46.041950000000000     45.851100000000002
H      47.197299999999998     50.120849999999990     50.148899999999998
H      45.971099999999993     47.382449999999999     46.000399999999999
H      51.348900000000000     47.405450000000002     48.440899999999999
H      50.462800000000001     45.618650000000002     46.932400000000001
H      45.414100000000005     50.381349999999998     49.151700000000005
H      44.651100000000000     48.980350000000001     46.902600000000007
