40

C      44.360500000000002     50.156999999999996     44.901599999999988
C      52.363600000000005     45.282600000000002     49.920699999999997
C      51.104099999999988     44.731900000000003     50.189400000000006
C      46.434399999999997     51.274399999999993     45.493600000000015
C      44.958999999999989     48.994100000000003     45.477500000000006
C      52.023699999999991     46.707000000000001     49.468400000000003
C      48.625499999999988     45.042400000000001     49.407800000000009
C      48.094400000000007     45.568600000000004     48.191000000000003
C      48.247600000000006     50.057099999999998     46.700100000000006
C      46.632599999999996     47.445399999999999     46.264100000000013
C      49.935299999999998     45.455900000000000     49.765799999999999
C      47.031099999999995     50.105000000000004     45.949799999999996
C      46.262100000000004     48.794699999999999     45.818100000000001
C      48.865499999999997     48.763700000000000     46.904600000000002
C      50.650199999999998     46.669300000000000     49.174599999999998
C      48.807600000000008     46.685800000000000     47.536500000000004
C      48.004500000000007     47.609600000000000     46.786900000000003
C      49.827900000000000     47.445799999999998     48.265900000000002
C      46.640799999999999     45.554099999999998     47.929200000000009
C      45.937699999999992     46.525900000000000     47.146400000000014
C      45.805299999999988     44.631399999999999     48.683600000000013
C      44.394199999999998     44.686900000000001     48.540400000000005
C      43.987300000000005     45.777500000000003     47.793199999999999
C      47.820299999999989     44.209099999999999     50.212800000000001
C      45.079499999999996     51.335900000000002     45.246499999999997
H      43.294700000000006     50.218000000000004     44.680999999999997
H      53.336600000000004     44.805599999999998     49.957999999999998
H      50.818600000000004     43.640999999999998     50.720600000000005
H      46.878299999999996     52.333800000000004     45.651100000000000
H      44.258400000000009     48.152000000000001     45.663899999999998
H      52.682599999999994     47.482500000000002     49.170200000000008
H      48.704800000000006     51.048700000000004     46.647099999999995
H      43.789600000000007     44.260800000000003     49.320000000000007
H      42.663399999999996     47.029299999999999     48.289300000000011
H      44.439999999999998     52.359000000000002     45.729600000000005
N      49.838400000000007     48.743300000000005     47.899100000000004
N      44.619299999999996     46.708700000000000     47.260100000000008
O      48.160799999999995     43.872199999999999     51.319000000000003
O      42.746499999999997     46.065200000000004     48.373100000000008
O      46.445599999999999     43.818100000000001     49.541400000000010
