18

C      48.916549999999994     47.132149999999996     47.656149999999990
C      47.622050000000002     47.878649999999993     47.389349999999993
C      49.778649999999999     47.592649999999992     46.666649999999997
C      47.335849999999994     49.198149999999998     46.860649999999993
C      49.239350000000002     46.456450000000004     48.867849999999997
C      46.674449999999993     47.299549999999996     48.308250000000001
C      49.628050000000002     48.941450000000003     46.199849999999998
C      48.530049999999989     49.876749999999987     46.645649999999996
C      48.181649999999991     46.015149999999991     49.606449999999995
C      46.862150000000000     46.274349999999998     49.293449999999993
H      50.450749999999999     46.844849999999994     46.243549999999999
H      46.322149999999993     49.864149999999995     47.034949999999995
H      50.218849999999989     46.064849999999993     49.255150000000000
H      45.549250000000001     47.537449999999993     48.249250000000004
H      50.150149999999996     49.370649999999998     45.461050000000000
H      48.310149999999993     50.837249999999997     46.750249999999994
H      48.267649999999989     45.162750000000003     50.538950000000000
H      45.781649999999999     46.071849999999998     50.150349999999989
