18

C      48.135154999999997     47.602649999999997     47.309899999999999
C      47.628474999999995     47.625449999999994     48.634900000000009
C      49.423755000000000     47.342849999999991     46.852200000000003
C      48.421244999999999     47.057849999999995     49.600900000000003
C      47.187694999999991     47.685949999999998     46.151900000000005
C      46.330015000000003     48.160850000000003     48.894700000000007
C      50.278125000000003     46.876650000000005     47.989400000000010
C      49.835434999999990     46.912849999999999     49.425800000000002
C      45.954664999999991     48.058950000000003     46.454300000000011
C      45.747235000000003     48.790950000000002     47.761900000000004
H      49.757114999999999     47.367550000000001     45.816600000000001
H      48.017875000000004     46.609050000000003     50.560099999999998
H      47.544404999999998     47.114650000000005     45.439900000000002
H      46.178744999999992     48.158549999999998     50.051800000000007
H      51.187984999999998     46.688749999999992     47.617700000000006
H      50.557374999999993     47.166149999999995     50.185500000000012
H      44.812015000000002     48.274149999999999     46.065400000000004
H      45.049755000000005     49.390949999999997     48.196700000000000
