18

C      47.107599999999991     47.516799999999989     48.606599999999993
C      48.223700000000001     47.730200000000004     47.562600000000003
C      47.489899999999999     46.735700000000001     49.844300000000004
C      49.580700000000000     47.528500000000001     48.095700000000001
C      46.094199999999994     48.456800000000008     48.404299999999999
C      47.883899999999997     48.490000000000002     46.364199999999997
C      48.860499999999995     46.208700000000000     49.808999999999997
C      49.953399999999995     46.626100000000001     49.097999999999999
C      45.807399999999994     49.224499999999999     47.306899999999999
C      46.699899999999992     49.221499999999999     46.223600000000005
H      46.795399999999994     46.969299999999997     50.616699999999994
H      50.288999999999994     48.184500000000007     47.554200000000002
H      45.725999999999999     48.832699999999996     49.419499999999999
H      48.420600000000000     48.453499999999998     45.363399999999999
H      49.193199999999997     45.782800000000002     50.644599999999997
H      50.972900000000003     46.442600000000006     49.459299999999999
H      45.027099999999997     50.217199999999998     47.496099999999998
H      46.518999999999998     49.873500000000000     45.355400000000003
