18

C      47.271499999999989     47.880149999999986     48.210499999999996
C      47.828899999999997     48.418050000000001     46.905099999999997
C      47.694399999999995     48.749550000000006     49.352600000000002
C      48.225900000000003     49.804250000000003     46.754199999999990
C      46.954799999999999     46.560949999999998     48.356400000000001
C      48.601099999999995     47.472749999999998     46.209499999999998
C      47.906100000000002     50.134750000000004     49.152799999999992
C      48.366199999999999     50.612150000000007     47.755599999999994
C      47.499199999999995     45.585150000000006     47.340600000000002
C      48.288500000000006     46.008749999999999     46.277299999999990
H      47.865499999999997     48.250750000000004     50.293399999999998
H      48.484400000000001     50.054849999999995     45.804899999999996
H      46.459600000000002     46.229549999999996     49.216599999999993
H      49.540399999999998     47.455350000000003     45.721299999999992
H      48.022600000000004     51.072449999999996     49.838299999999997
H      48.865299999999998     51.480950000000000     47.585199999999993
H      47.331899999999997     44.519050000000000     47.310200000000002
H      48.439799999999998     45.107850000000006     45.706600000000002
