18

C      48.717649999999999     48.209749999999993     48.091399999999993
C      47.759850000000000     47.412150000000004     47.235500000000002
C      49.247850000000014     47.523650000000004     49.118800000000007
C      47.167350000000006     46.132550000000002     47.299800000000005
C      49.171650000000007     49.525049999999993     47.534800000000004
C      46.910250000000005     48.388249999999999     46.545100000000005
C      48.716550000000005     46.211950000000002     49.440300000000008
C      47.677650000000007     45.568950000000001     48.552300000000002
C      48.486550000000008     50.211050000000000     46.611699999999999
C      47.295250000000010     49.736350000000002     46.188299999999998
H      50.133049999999997     48.042549999999999     49.643300000000011
H      46.185950000000005     46.028649999999999     46.930000000000007
H      49.782750000000007     50.322649999999996     48.097099999999998
H      45.866950000000003     47.901249999999997     46.511000000000010
H      48.765950000000004     45.927450000000000     50.488000000000000
H      47.554950000000005     44.689650000000000     49.420500000000004
H      48.769250000000000     51.310350000000000     46.327700000000007
H      46.991750000000010     50.533850000000001     45.512000000000000
