18

C      48.122299999999989     48.004949999999994     47.396399999999986
C      48.086600000000004     47.642849999999996     48.807999999999993
C      48.346199999999996     49.339749999999995     47.029299999999992
C      48.623400000000004     48.680849999999992     49.585499999999996
C      47.799900000000008     46.986750000000001     46.453000000000003
C      47.574900000000000     46.467749999999995     49.273099999999999
C      49.000000000000000     50.305149999999998     47.915100000000010
C      48.992800000000003     49.890649999999994     49.272400000000005
C      47.143500000000003     45.800849999999997     46.929400000000001
C      46.909599999999998     45.633449999999996     48.368200000000002
H      48.134500000000003     49.650749999999988     46.019300000000001
H      48.412199999999999     48.653349999999989     50.671999999999997
H      47.855000000000004     47.085149999999999     45.328000000000003
H      47.602100000000007     45.983849999999990     50.260700000000000
H      48.988100000000003     51.419449999999998     47.459800000000001
H      49.337400000000002     50.477649999999997     50.052999999999997
H      46.716800000000006     45.020749999999992     46.172200000000004
H      46.662599999999998     44.580550000000002     48.953699999999998
