5

C      47.651599999999995     47.904549999999986     47.918849999999985
H      47.618099999999998     47.131149999999998     47.060749999999999
H      47.153999999999996     48.868850000000002     48.037049999999994
H      47.482399999999998     47.520350000000001     48.939250000000001
H      48.846000000000004     48.032049999999991     47.928550000000001
