5

C      48.186899999999994     48.141899999999993     48.012799999999999
H      47.236400000000003     48.775500000000001     48.317700000000009
H      48.449399999999997     48.451299999999996     47.024600000000000
H      48.763599999999997     48.653699999999994     48.975400000000000
H      47.641199999999998     47.224499999999999     48.265900000000009
