18

C      48.363549999999989     48.622299999999996     47.822277049999990
C      47.760349999999995     47.367400000000004     48.113277049999994
C      48.934249999999999     48.869500000000002     46.500777049999996
C      47.680149999999998     46.243899999999996     47.226577050000003
C      48.251349999999995     49.662400000000005     48.823577049999997
C      47.153550000000003     47.057600000000008     49.440677050000005
C      48.226449999999993     47.887000000000000     45.625577050000004
C      47.699249999999999     46.605699999999999     45.869577050000004
C      47.938449999999996     49.329500000000010     50.170877050000001
C      47.278749999999995     48.031900000000007     50.321177050000003
H      46.566949999999999     46.146900000000002     49.823077049999995
H      49.433050000000001     49.791800000000009     46.056577050000001
H      46.949049999999993     45.241900000000001     47.321677050000005
H      48.773750000000000     50.758099999999999     48.524177050000006
H      47.196849999999998     47.984700000000004     51.417422950000002
H      48.143549999999998     48.287900000000008     44.582577049999998
H      47.298549999999999     45.865800000000007     45.192577049999997
H      47.997250000000001     49.954800000000006     51.184877049999997
