6

C      48.066657499999984     47.093100000000000     47.993499999999997
H      48.344457499999990     49.659199999999998     47.913399999999996
H      46.949457499999994     47.013900000000007     47.928399999999996
H      48.019657499999994     46.340800000000002     48.870000000000005
H      48.581357499999996     46.684300000000007     47.129999999999995
S      49.050542500000006     48.685600000000008     48.456400000000002
