18

C      48.140349999999991     47.696449999999999     48.930999999999990
C      48.626449999999998     48.378050000000009     47.640900000000002
C      46.956650000000003     48.104050000000008     49.451799999999999
C      47.858649999999997     49.576550000000005     47.325699999999998
C      48.579450000000008     46.300350000000002     48.927199999999999
C      49.356150000000000     47.716349999999998     46.575400000000002
C      46.183349999999997     49.202850000000005     49.104799999999997
C      46.860050000000001     50.134450000000008     48.235500000000002
C      49.531549999999996     45.877250000000011     48.042900000000003
C      49.891649999999998     46.453650000000003     46.790799999999997
H      46.562750000000001     47.622950000000010     50.325099999999999
H      47.941150000000000     49.632650000000005     46.304499999999997
H      48.287550000000003     45.777250000000002     49.838200000000001
H      49.360050000000001     48.298050000000011     45.674900000000001
H      45.312249999999999     49.437249999999999     49.840899999999998
H      46.389850000000003     51.127350000000000     48.391900000000000
H      50.036950000000004     44.872650000000000     48.236400000000003
H      50.687750000000001     46.126049999999999     46.146999999999998
