18

C      48.177849999999992     47.168492999999998     48.280129999999993
C      47.820850000000000     48.622359999999993     48.187950000000001
C      47.945250000000001     46.890059999999998     46.832450000000001
C      46.776450000000004     49.118550000000006     47.356110000000001
C      49.065450000000006     46.530560000000001     49.283649999999994
C      48.453049999999998     49.355780000000003     49.198810000000002
C      47.280250000000002     47.466331000000004     45.761910000000000
C      46.616950000000003     48.737630000000003     46.050390000000000
C      49.278350000000010     47.400843000000002     50.383690000000001
C      49.289550000000006     48.820779999999999     50.149510000000006
H      48.524949999999997     46.003959999999999     46.847690000000000
H      46.399950000000004     50.043100000000003     47.685330000000000
H      49.503750000000004     45.495359999999998     49.317160000000001
H      48.065950000000001     50.504640000000002     49.208469999999998
H      47.668750000000003     46.952359999999999     44.795119999999997
H      46.125350000000005     49.537540000000000     45.430039999999998
H      49.874649999999995     46.986860000000014     51.204880000000003
H      49.688050000000011     49.607800000000005     51.072379999999995
