18

C      48.260099999999994     48.098934999999997     48.633399999999995
C      47.975999999999999     47.441434999999991     47.318899999999999
C      47.507400000000004     47.880334999999995     49.758600000000001
C      46.645700000000005     46.871635000000005     47.364699999999999
C      49.551199999999994     48.762231000000007     48.706899999999990
C      48.852399999999989     47.481135000000002     46.174499999999995
C      46.212900000000005     47.250035000000004     49.781199999999998
C      45.822500000000005     46.795534999999994     48.573200000000000
C      50.352300000000000     48.349527000000002     47.676800000000000
C      50.189299999999989     47.700234999999999     46.299899999999994
H      47.843400000000003     48.433287999999997     50.760099999999994
H      46.411100000000005     46.263834999999993     46.477300000000000
H      49.702399999999997     49.736165000000007     49.334499999999991
H      51.010500000000008     47.304134999999995     45.721000000000004
H      45.426500000000004     47.057634999999998     50.822199999999995
H      44.643200000000007     46.344135000000001     48.502700000000004
H      51.356799999999993     48.619315000000007     47.635899999999992
H      48.325299999999999     47.110035000000003     45.177800000000005
