9

C      47.707599999999985     47.608649999999990     49.167549999999991
C      47.478999999999992     48.424049999999994     47.919850000000004
C      47.899999999999999     47.653350000000003     46.822650000000003
H      47.550899999999992     48.301850000000002     50.106349999999999
H      47.740900000000003     46.546350000000004     49.122549999999997
H      46.776000000000003     49.453649999999996     47.771949999999997
H      49.223999999999997     47.778750000000002     49.179049999999997
H      48.171199999999992     46.704549999999998     47.045250000000003
H      47.393099999999997     47.559650000000005     45.893650000000001
