18

C      48.418349999999990     48.765799999999992     48.339100000000002
C      47.887950000000004     47.377200000000002     47.893999999999991
C      47.631950000000003     49.547700000000006     49.146299999999997
C      46.596850000000003     47.057000000000002     48.233099999999993
C      49.656450000000007     49.208700000000007     47.702199999999991
C      48.495250000000013     46.485699999999994     47.055099999999996
C      46.634650000000008     48.850399999999993     49.885099999999994
C      46.091449999999995     47.792000000000002     49.252699999999990
C      50.050350000000009     48.264699999999998     46.808599999999998
C      49.558750000000003     46.979399999999998     46.395899999999997
H      47.885649999999998     50.592399999999998     49.314899999999994
H      46.089550000000003     46.022900000000000     47.976299999999995
H      50.397250000000000     50.188599999999994     48.188400000000001
H      48.022950000000009     45.407600000000002     46.906999999999996
H      45.866050000000001     49.200199999999995     50.624799999999993
H      44.765749999999997     47.495999999999995     49.171399999999991
H      51.234250000000003     48.614899999999999     46.667199999999994
H      49.736950000000007     46.555399999999999     45.375200000000007
