18

C      48.432650000000002     47.316249999999982     48.032724999999985
C      47.832950000000011     48.647349999999996     48.056924999999993
C      49.567149999999998     47.070950000000003     47.086524999999995
C      48.662649999999999     49.682749999999992     47.393724999999989
C      47.902450000000002     46.284249999999993     48.860139000000004
C      46.637550000000005     49.008149999999993     48.730924999999999
C      50.263450000000006     48.170349999999992     46.521124999999998
C      49.838350000000005     49.450949999999999     46.691924999999998
C      46.699550000000002     46.679549999999999     49.494112999999999
C      46.061450000000008     48.017149999999994     49.426333999999997
H      50.005850000000009     46.138449999999999     47.343024999999997
H      48.553850000000011     50.794750000000001     47.652225000000001
H      48.160750000000007     45.205249999999999     48.646324999999990
H      46.074449999999999     50.051849999999995     48.853946400000012
H      50.953749999999999     47.811349999999997     45.859025000000003
H      50.224950000000007     50.407750000000000     46.167024999999995
H      46.155450000000002     46.101549999999996     50.140974999999997
H      45.046250000000001     47.934949999999994     49.592604000000009
