18

C      48.929099999999991     47.292949999999990     48.416999999999994
C      48.656500000000001     48.248150000000010     47.372900000000001
C      48.588199999999993     45.834649999999996     48.507000000000005
C      47.905200000000001     47.643850000000000     46.266700000000000
C      49.487299999999998     47.702350000000010     49.557000000000002
C      48.663099999999993     49.629350000000002     47.407800000000009
C      47.438499999999998     45.613550000000004     47.599500000000006
C      47.133400000000002     46.516249999999999     46.553300000000007
C      49.554200000000002     49.166150000000002     49.527400000000000
C      49.196099999999994     50.154949999999999     48.598800000000011
H      49.110099999999996     45.237650000000002     49.383400000000009
H      48.008299999999998     48.435350000000000     45.486300000000000
H      49.614500000000000     47.046050000000008     50.388600000000011
H      48.164600000000000     50.290350000000004     46.558400000000006
H      46.865699999999997     44.715249999999997     47.588300000000004
H      46.048999999999999     46.224550000000008     45.857400000000013
H      49.951000000000001     49.345849999999999     50.513700000000000
H      49.217000000000006     51.284750000000003     48.932600000000008
