18

C      47.293749999999989     47.907619999999994     47.920399999999994
C      48.547349999999987     48.439780000000006     47.370500000000000
C      46.906549999999996     48.923009999999998     48.782399999999996
C      49.251449999999998     49.669530000000002     47.706200000000003
C      46.655949999999997     46.619830000000000     47.751399999999997
C      49.223449999999993     47.402680000000004     46.560499999999998
C      47.599949999999993     50.055450000000000     49.334699999999998
C      48.706250000000004     50.439389999999996     48.660800000000002
C      47.422149999999995     45.696179999999998     47.108699999999999
C      48.670949999999998     46.056730000000002     46.490800000000000
H      46.067149999999991     48.828910000000000     49.417999999999992
H      50.348750000000003     49.856410000000004     47.208900000000000
H      45.651249999999997     46.477029999999999     48.309100000000001
H      50.265549999999998     47.608200000000004     46.307299999999998
H      47.190049999999992     50.755029999999998     50.078299999999999
H      49.221049999999998     51.325080000000000     49.053599999999996
H      46.955249999999992     44.674920000000000     46.904600000000002
H      49.274649999999994     45.337208000000004     45.921700000000001
