40

C      48.231499999999990     47.675199999999997     47.785599999999995
C      49.363799999999998     46.712999999999994     47.895200000000003
C      51.760700000000000     50.380499999999998     47.165700000000001
C      48.419899999999998     49.122199999999992     47.674199999999999
C      50.399899999999995     50.457499999999996     46.932700000000004
C      52.092599999999990     49.115099999999998     47.721899999999998
C      49.849599999999995     49.346099999999993     47.899999999999991
C      50.888999999999996     48.276899999999998     47.756799999999998
C      46.838999999999999     47.370499999999993     47.749400000000001
C      46.305099999999996     46.049099999999996     48.063699999999997
C      47.521299999999997     45.060900000000004     47.929200000000009
C      48.758699999999990     45.421799999999990     47.942999999999998
C      45.516099999999994     48.275899999999993     47.328299999999999
C      44.174399999999991     47.902500000000003     47.472999999999999
C      44.051999999999992     46.757999999999996     48.105300000000000
C      45.018099999999997     45.754099999999994     48.213999999999999
C      46.081699999999998     49.483300000000000     46.902999999999999
C      47.446599999999997     49.827199999999991     46.848799999999997
C      47.981399999999994     51.162700000000001     46.694800000000001
C      49.458199999999991     51.411199999999994     46.349600000000002
C      44.522399999999990     44.394800000000004     48.765699999999995
C      49.939300000000003     49.488699999999994     49.607900000000001
H      52.520499999999998     50.852699999999999     46.507899999999999
H      53.126300000000001     48.706699999999998     47.769300000000001
H      47.339699999999993     43.916699999999992     47.989999999999995
H      42.873699999999999     46.453099999999992     48.235599999999998
H      45.319599999999994     50.319800000000001     46.883400000000002
H      49.818799999999996     52.288499999999999     45.735199999999999
H      43.464299999999994     49.494000000000000     46.543500000000002
H      47.255099999999999     51.948999999999998     46.483300000000000
H      43.444499999999991     44.490899999999996     49.098299999999995
H      45.069299999999998     44.012100000000004     49.561700000000002
H      44.327599999999997     43.711500000000001     47.926999999999992
H      49.889799999999994     43.729799999999997     47.576999999999998
H      49.727300000000000     48.552399999999992     50.264800000000001
H      49.246099999999998     50.359200000000001     49.876599999999996
H      50.868199999999987     49.947199999999995     49.883700000000005
N      50.640199999999993     46.949900000000000     47.762400000000000
O      43.125499999999995     48.750199999999992     47.177999999999997
O      49.791399999999996     44.489400000000003     48.131299999999996
