45

C      45.228899999999989     47.497349999999990     48.170599999999993
C      45.979599999999998     46.233950000000000     47.976500000000001
C      49.125699999999995     50.264049999999997     48.601099999999988
C      49.971799999999988     49.130249999999997     48.391399999999990
C      45.774799999999999     48.718049999999998     47.624299999999991
C      47.289299999999997     46.521649999999994     47.272999999999996
C      47.712199999999996     50.027150000000006     48.342799999999997
C      49.557099999999991     47.742949999999993     48.212099999999992
C      47.375499999999995     48.842749999999995     47.894700000000000
C      48.164500000000004     47.634049999999995     47.947899999999990
C      43.871299999999998     47.329949999999997     48.605800000000002
C      43.442599999999999     45.976149999999997     48.749699999999990
C      44.147699999999993     44.745249999999999     48.621599999999987
C      45.503799999999998     44.857149999999997     48.259000000000000
C      49.875599999999991     51.162149999999997     49.484799999999993
C      51.343399999999988     51.392649999999989     49.295899999999989
C      51.972599999999986     50.395550000000000     48.680499999999995
C      51.345099999999995     49.106449999999995     48.352800000000002
C      45.380599999999987     49.597349999999992     46.758200000000002
C      43.584299999999999     49.829749999999990     49.166499999999999
C      43.332999999999998     48.520449999999997     49.262599999999992
C      53.402599999999993     50.549349999999997     48.457899999999995
C      45.531899999999993     49.583449999999999     45.521500000000003
C      42.919399999999996     50.538849999999996     50.329300000000003
H      46.967399999999998     46.502749999999999     46.223100000000002
H      50.145599999999995     46.701249999999995     48.095999999999989
H      42.413199999999996     45.693349999999995     48.950699999999998
H      43.444499999999998     43.840350000000001     48.729799999999997
H      46.101099999999988     44.005749999999992     48.176599999999993
H      49.056299999999993     51.901549999999993     49.990799999999993
H      51.943799999999996     52.159649999999999     49.692899999999995
H      51.932400000000001     48.244349999999997     48.010399999999990
H      45.089899999999993     50.652349999999998     47.274400000000000
H      44.482499999999995     50.417450000000002     48.715999999999994
H      42.629799999999996     48.447849999999988     50.088399999999993
H      54.072100000000006     49.682350000000000     48.000999999999991
H      46.007199999999997     50.396749999999997     45.050899999999999
H      47.172899999999998     51.626249999999999     47.340699999999998
H      41.927899999999994     50.080249999999992     50.345799999999997
H      42.692099999999996     51.665649999999999     50.085099999999997
H      43.053999999999995     50.045649999999995     51.320099999999996
H      47.887399999999985     45.628049999999995     47.297100000000000
H      45.253000000000000     49.047549999999987     44.679900000000004
O      53.919299999999993     51.627150000000000     48.480999999999995
O      46.950499999999998     51.141149999999996     48.033400000000000
