5

C      48.165049999999994     48.128389999999996     47.809299999999986
H      48.688549999999999     46.934950000000001     47.355199999999996
H      47.311450000000001     47.464039999999997     47.424399999999991
H      48.235849999999992     48.645740000000004     48.751700000000000
H      48.400150000000004     49.065049999999999     47.248300000000000
