18

C      48.820299999999996     48.308250000000001     47.504934999999996
C      47.689399999999999     47.897250000000000     48.375304999999997
C      48.945099999999996     48.046450000000007     46.162035000000003
C      46.561199999999999     47.158250000000010     47.802305000000004
C      49.762900000000002     49.307350000000000     48.076025000000001
C      47.503700000000002     48.137349999999998     49.697155000000009
C      47.878300000000003     47.300849999999997     45.707355000000000
C      46.875200000000000     46.510450000000006     46.586984999999999
C      49.634100000000004     49.673649999999995     49.477634999999992
C      48.616500000000002     48.963349999999991     50.195324999999997
H      49.494200000000006     48.642849999999996     45.467745000000001
H      45.702600000000004     46.934049999999999     48.234094999999996
H      50.297399999999996     50.134150000000005     47.507334999999998
H      46.866500000000002     47.683949999999996     50.448824999999999
H      47.616399999999999     46.867750000000001     44.616275000000002
H      46.447600000000001     45.520250000000004     46.082265000000000
H      49.908400000000000     50.479749999999996     50.312325000000001
H      48.634799999999998     48.960549999999998     51.383724999999998
