46

C      50.119599999999991     47.846039999999995     52.189149999999998
C      50.816400000000002     48.920100000000005     51.680050000000001
C      45.151499999999999     48.355480000000000     46.736250000000005
C      49.045900000000003     50.824600000000004     46.428350000000002
C      48.862099999999998     47.609780000000001     51.637450000000008
C      46.249400000000009     48.461879999999994     45.841150000000006
C      48.126900000000006     49.987200000000001     45.771350000000005
C      45.230300000000000     48.301420000000007     48.101649999999999
C      50.403400000000005     49.552700000000002     50.543550000000003
C      49.391599999999997     50.712800000000001     47.815050000000006
C      47.094200000000001     47.836460000000002     49.932050000000011
C      47.484099999999998     49.156700000000001     46.576950000000004
C      48.408799999999999     48.276470000000003     50.416850000000004
C      46.511700000000005     48.277249999999995     48.673549999999999
C      49.277200000000008     49.194099999999992     49.769650000000006
C      48.761499999999998     49.635700000000000     48.506850000000007
C      47.692499999999995     48.848329999999990     47.884850000000007
C      48.237800000000007     46.252600000000001     51.898950000000006
C      47.193200000000004     45.632840000000002     51.067650000000008
C      46.777600000000007     46.486689999999996     50.123350000000009
C      46.365899999999996     48.303590000000000     44.439349999999997
C      47.384399999999999     49.101599999999991     43.600250000000010
C      47.816699999999997     50.358899999999991     44.367550000000001
C      45.891999999999996     45.852779999999996     48.937249999999999
C      43.890900000000002     47.646770000000004     46.010849999999998
H      49.445999999999998     51.573300000000003     45.685050000000011
H      44.402000000000001     47.818809999999999     48.514350000000000
H      50.423100000000005     51.118299999999998     48.287050000000001
H      48.467300000000009     45.576189999999997     52.960349999999998
H      47.064599999999999     44.426699999999997     51.095750000000002
H      45.297200000000004     48.218710000000002     43.864650000000005
H      48.719099999999997     50.805599999999998     43.808950000000003
H      46.701900000000009     49.164900000000003     42.580350000000003
H      47.293900000000008     51.383600000000001     44.226950000000009
H      45.115700000000004     46.618859999999998     48.714350000000003
H      51.553100000000001     47.469709999999999     53.419649999999997
H      51.946600000000004     50.754100000000008     51.126150000000003
H      43.243799999999993     47.243749999999999     46.935850000000009
H      44.426699999999997     46.918520000000001     45.442050000000002
H      43.225899999999996     48.515720000000002     45.321350000000002
H      48.341300000000004     48.649990000000003     43.418350000000011
H      52.774100000000004     49.507899999999999     51.886150000000008
O      45.907800000000009     44.658299999999997     48.782350000000001
O      51.044300000000007     46.984740000000002     52.835650000000008
O      51.360100000000003     50.430199999999999     50.199750000000002
O      52.013999999999996     49.037599999999998     52.393750000000004
