58

C      46.747199999999992     48.720449999999992     46.728799999999993
C      46.080500000000001     49.282150000000001     47.909199999999998
C      50.964400000000005     47.520249999999997     49.021600000000007
C      50.163699999999999     48.165149999999997     50.187899999999999
C      48.084200000000003     48.136749999999999     46.591099999999997
C      46.655799999999999     48.926249999999996     49.184100000000015
C      50.089600000000004     47.527349999999998     47.905600000000007
C      48.970599999999997     48.834750000000000     50.296800000000005
C      48.811599999999999     48.126150000000003     47.941200000000009
C      48.110800000000005     48.511449999999996     49.106400000000008
C      45.947000000000003     48.565950000000001     45.552700000000002
C      44.683700000000002     49.283249999999995     45.665599999999998
C      44.257600000000004     50.282950000000000     46.696100000000001
C      44.909900000000000     50.030549999999991     47.929900000000004
C      51.846200000000003     46.508249999999997     49.372100000000003
C      52.383099999999999     46.515549999999998     50.618899999999996
C      52.464100000000002     47.782249999999998     51.115200000000002
C      51.071499999999993     48.464550000000003     51.297600000000003
C      46.564200000000000     48.117049999999999     44.301699999999997
C      45.688700000000004     47.347549999999998     43.442999999999998
C      44.324900000000000     47.683749999999996     43.715199999999996
C      43.918500000000002     48.549349999999997     44.704999999999998
C      48.755099999999999     47.934649999999998     45.408200000000008
C      48.035800000000002     48.094349999999999     44.242800000000003
C      45.996600000000001     49.833350000000003     50.034599999999998
C      43.861600000000003     51.392550000000000     50.011800000000008
C      44.924600000000005     50.485249999999994     49.381000000000000
C      50.318600000000011     46.365049999999997     46.884500000000003
C      52.687900000000006     44.579050000000002     46.154600000000002
C      52.808500000000002     45.602849999999997     48.591900000000010
C      53.136699999999998     48.125650000000000     52.418599999999998
C      53.088100000000004     45.045549999999999     47.518200000000007
C      50.927300000000010     49.328449999999997     52.143400000000000
H      43.380400000000002     50.900950000000009     46.805900000000008
H      46.260600000000004     46.510350000000003     42.840699999999998
H      43.299600000000005     47.139649999999996     43.336200000000005
H      51.392699999999998     46.766750000000002     46.563600000000008
H      49.864699999999999     48.053350000000002     45.307600000000008
H      48.375000000000000     47.699550000000002     43.249099999999999
H      46.297600000000003     50.071649999999991     51.187700000000007
H      43.618900000000004     52.208050000000000     49.385999999999996
H      43.075200000000002     50.974950000000000     50.001700000000000
H      47.765400000000007     50.230450000000005     51.480800000000002
H      44.278799999999997     51.870550000000009     51.073400000000007
H      49.742699999999999     46.371249999999996     46.079400000000007
H      50.173099999999998     45.440950000000001     47.518200000000007
H      52.013100000000001     43.791950000000000     46.448400000000007
H      53.681300000000000     43.997349999999997     46.035300000000007
H      53.703299999999999     47.305950000000003     53.159300000000002
H      42.296700000000001     48.633350000000000     45.920900000000003
H      53.202700000000000     45.303350000000002     51.949000000000012
H      52.957600000000006     45.384850000000000     45.315700000000007
H      49.956200000000003     49.347349999999992     52.701800000000006
H      51.437200000000011     50.187049999999999     51.317999999999998
O      53.594700000000010     49.248649999999998     52.726399999999998
O      42.595800000000004     48.620950000000001     45.013500000000008
O      52.651499999999999     45.195850000000000     51.252600000000001
O      48.497100000000003     49.651350000000008     51.296000000000006
