18

C      47.980749999999993     47.619899999999987     47.423099999999991
C      47.825649999999996     48.872100000000003     48.195799999999998
C      46.968050000000005     46.590299999999999     47.338600000000000
C      46.523550000000000     49.472600000000000     47.908799999999992
C      49.375649999999993     47.374499999999998     47.189200000000000
C      49.035250000000005     49.540199999999999     48.662900000000000
C      45.700249999999997     47.079899999999995     47.448900000000002
C      45.618150000000000     48.506600000000006     47.750899999999994
C      50.516750000000002     48.257700000000000     47.219000000000001
C      50.379249999999999     49.238600000000005     48.400600000000004
H      47.053150000000002     45.461399999999998     47.557899999999997
H      46.184449999999998     50.538600000000002     47.861399999999996
H      49.896749999999997     46.396299999999997     46.679899999999996
H      48.588849999999994     50.383700000000005     49.320100000000004
H      44.683149999999998     46.503399999999999     47.307800000000000
H      44.447850000000003     48.649700000000010     47.441800000000001
H      51.552149999999997     48.000299999999996     47.176400000000001
H      51.245249999999999     49.680099999999996     48.836700000000000
