18

C      48.537349999999989     48.389499999999998     47.405299999999997
C      48.188049999999997     48.970000000000006     48.721600000000009
C      49.663050000000005     47.658300000000004     47.198400000000007
C      49.254849999999998     48.823100000000004     49.684600000000017
C      47.532950000000007     48.458499999999994     46.217700000000008
C      46.831049999999998     49.104700000000001     48.950800000000001
C      50.458050000000007     47.196300000000001     48.264499999999998
C      50.251849999999997     47.858200000000004     49.508300000000006
C      46.272550000000003     48.968799999999995     46.719100000000012
C      45.802849999999999     49.062099999999994     48.082000000000008
H      49.872050000000009     47.450799999999994     46.152100000000004
H      48.953350000000007     49.357300000000002     50.780299999999997
H      47.923850000000009     48.095199999999998     45.219700000000003
H      46.498349999999995     49.044900000000005     49.989200000000011
H      51.282450000000004     46.491499999999995     48.448800000000006
H      51.037050000000001     47.927100000000003     50.371600000000015
H      45.776649999999997     49.088400000000000     45.790500000000009
H      44.717549999999996     49.508500000000005     48.322200000000009
