18

C      47.892149999999994     48.866084999999998     47.936399999999992
C      48.057350000000000     47.429945000000004     47.712199999999996
C      46.518650000000001     49.097335000000001     48.204999999999998
C      47.176750000000006     46.420434999999998     47.364900000000006
C      49.059650000000005     49.572915000000009     48.479100000000003
C      49.460449999999994     46.770944999999998     47.516199999999998
C      45.550350000000002     48.034635000000009     47.877700000000004
C      45.875850000000000     46.700495000000004     47.561800000000005
C      50.056249999999991     48.791615000000007     48.863600000000005
C      50.310850000000002     47.394694999999999     48.498400000000004
H      45.971450000000004     50.062865000000002     48.268700000000010
H      47.434249999999999     45.425025000000005     47.236800000000002
H      49.212350000000001     50.574974999999995     48.779900000000012
H      49.841949999999997     46.484665000000007     46.616799999999998
H      44.602550000000001     48.212245000000010     47.695499999999996
H      45.256850000000000     45.723645000000005     47.285600000000002
H      50.805950000000010     49.379465000000010     49.383200000000002
H      51.397449999999999     47.019215000000003     48.674800000000005
