5

C      47.755949999999999     47.805899999999994     47.977449999999990
H      48.828949999999999     47.591099999999997     48.621150000000000
H      47.171050000000001     48.008699999999997     48.984250000000003
H      47.367550000000001     47.197000000000003     47.015749999999997
H      47.929150000000000     48.802999999999997     47.621049999999997
