18

C      47.590549999999993     48.301099999999991     47.550449999999991
C      48.166850000000004     47.870800000000003     48.758250000000004
C      47.960749999999997     47.590700000000005     46.361049999999999
C      48.357950000000002     46.367300000000000     48.897350000000003
C      47.464450000000006     49.691200000000002     47.068550000000002
C      48.803750000000001     48.858799999999995     49.623249999999999
C      48.429049999999997     46.375500000000002     46.533050000000003
C      48.545150000000000     45.602400000000003     47.756850000000000
C      48.289949999999997     50.460400000000000     47.902549999999991
C      48.777149999999999     50.146400000000007     49.224649999999997
H      47.920750000000005     48.039800000000000     45.371650000000002
H      48.612550000000006     45.959099999999999     49.833950000000002
H      46.726549999999996     49.981600000000000     46.234650000000002
H      49.069550000000000     48.824700000000000     50.628349999999998
H      48.521750000000004     45.549100000000003     45.733750000000001
H      48.219650000000009     44.385500000000000     47.599050000000005
H      48.454450000000001     51.614500000000000     47.938850000000002
H      49.273450000000004     51.134800000000006     49.575850000000003
