27

C      48.930499999999995     47.696799999999996     46.926599999999993
C      48.196800000000003     46.421400000000006     46.765300000000003
C      47.960999999999999     47.380499999999998     51.213500000000003
C      48.849100000000000     48.601099999999988     48.089000000000006
C      47.215600000000002     46.254599999999996     47.808700000000009
C      48.397399999999998     48.462299999999999     50.547900000000006
C      48.129500000000000     48.006799999999998     49.121100000000006
C      47.613300000000002     46.663700000000006     49.157000000000004
C      49.592500000000001     48.215099999999993     45.759200000000000
C      49.762500000000010     47.296599999999998     44.673900000000003
C      49.228499999999990     46.026799999999994     44.806699999999999
C      48.189000000000000     45.606200000000001     45.591900000000003
C      49.120500000000000     50.006199999999993     48.122199999999999
C      49.857700000000001     50.310000000000002     46.934900000000006
C      50.334000000000010     49.492900000000006     45.868000000000002
C      45.852800000000002     45.920199999999994     47.660800000000002
H      48.917699999999996     49.457699999999988     50.880900000000004
H      47.846600000000002     47.447100000000006     52.316499999999998
H      50.125599999999999     47.719899999999996     43.683500000000002
H      49.771899999999995     45.416899999999998     44.026299999999999
H      47.660400000000003     44.641400000000004     45.295600000000000
H      48.845100000000002     50.793199999999999     49.011699999999998
H      50.195100000000004     51.358599999999996     46.978600000000000
H      50.789099999999998     50.133700000000005     45.050500000000000
H      45.579700000000003     45.460700000000003     46.652200000000001
H      45.210900000000002     45.655000000000001     48.448900000000002
N      47.319600000000001     46.429800000000000     50.472799999999999
