5

C      48.193329499999990     48.104199999999992     48.175949999999993
H      48.775659500000003     48.947800000000001     48.827150000000003
H      47.224340499999997     48.269199999999998     48.376949999999994
H      48.593659500000001     48.315100000000001     47.172849999999997
H      48.467139500000002     47.052199999999999     48.624250000000004
