18

C      48.525199999999991     48.773544999999991     47.964999999999989
C      47.759799999999998     47.548565000000004     47.683500000000009
C      47.818300000000001     49.584734999999995     48.922900000000013
C      46.303600000000003     47.476875000000000     47.912500000000009
C      49.777000000000001     49.281345000000002     47.449200000000005
C      48.580399999999997     46.726655000000001     46.844899999999996
C      46.720300000000002     48.999565000000004     49.752400000000009
C      45.929600000000001     48.113574999999997     49.091900000000010
C      50.344800000000006     48.585695000000001     46.384799999999998
C      49.726500000000001     47.206724999999999     46.290900000000008
H      48.606000000000009     50.190705000000008     49.569600000000008
H      45.866599999999998     46.838295000000002     47.198800000000006
H      49.625300000000003     50.330745000000000     47.587600000000009
H      48.711100000000002     45.669255000000000     46.645300000000006
H      46.282400000000003     49.821685000000002     50.425200000000004
H      44.854600000000005     47.908645000000000     49.295100000000005
H      51.145399999999995     48.838774999999998     45.574799999999996
H      50.734099999999998     46.691225000000003     45.847000000000008
