5

C      47.873849999999990     47.817349999999998     47.884849999999986
H      47.114550000000001     47.083950000000002     47.990349999999992
H      48.545650000000002     47.988050000000001     48.822850000000003
H      47.695950000000003     48.916049999999998     47.781649999999999
H      48.885449999999999     47.262950000000004     47.177149999999997
