18

C      48.262000000000000     48.121599999999987     48.241199999999992
C      47.005499999999998     48.881399999999999     47.899400000000007
C      48.411099999999990     46.622799999999998     47.832600000000006
C      46.401899999999998     48.456999999999994     46.602300000000007
C      49.361699999999999     48.607299999999995     49.022200000000005
C      46.597099999999998     49.781199999999998     48.970999999999997
C      47.440700000000007     46.219400000000007     47.015700000000002
C      46.491299999999995     47.082400000000007     46.393400000000007
C      49.102500000000006     49.790199999999999     49.502500000000005
C      47.743700000000004     50.100600000000014     49.706799999999994
H      49.100799999999992     45.876599999999996     48.116199999999999
H      45.884100000000004     49.039400000000001     45.898299999999999
H      50.427999999999997     48.418000000000006     48.578899999999997
H      45.572000000000003     50.042500000000004     49.436500000000002
H      47.568399999999997     45.126599999999996     46.924399999999999
H      45.823999999999998     46.617800000000003     45.632500000000000
H      49.764200000000002     50.558900000000008     50.050000000000004
H      47.622100000000003     50.873400000000004     50.367500000000000
