18

C      48.431249999999991     47.547099999999993     48.656899999999993
C      47.358850000000004     47.962000000000003     47.838599999999992
C      49.304350000000014     46.445200000000000     48.042799999999993
C      47.274950000000004     47.777199999999993     46.420099999999998
C      48.116750000000010     47.706400000000002     50.017599999999995
C      46.289850000000001     48.933399999999999     48.125299999999996
C      49.355150000000009     46.492599999999996     46.697699999999998
C      48.286349999999999     47.097700000000003     45.839199999999998
C      47.051150000000007     48.509500000000003     50.503200000000000
C      46.543750000000003     49.329200000000000     49.473400000000005
H      49.853350000000006     46.066299999999998     48.893299999999989
H      46.357650000000007     48.076599999999999     45.969400000000000
H      48.481150000000014     47.076599999999999     50.768299999999989
H      45.713549999999998     49.463799999999999     47.274899999999995
H      50.286450000000002     46.152400000000000     46.183000000000000
H      48.568550000000016     47.058000000000000     44.542499999999997
H      46.300150000000002     48.879599999999996     51.457500000000003
H      45.749650000000003     49.933700000000002     49.699500000000008
