18

C      47.336749999999988     48.151249999999997     47.560249999999996
C      47.984350000000006     48.149950000000004     48.835649999999994
C      46.927450000000007     49.421750000000003     47.084650000000003
C      48.684250000000006     49.319650000000010     49.489150000000002
C      47.355149999999995     46.971350000000001     46.697250000000004
C      48.370549999999994     46.877350000000000     49.261749999999999
C      46.987449999999995     50.431550000000001     48.125950000000003
C      47.802850000000007     50.273150000000001     49.389950000000006
C      47.713350000000005     45.684350000000002     47.225450000000002
C      48.154650000000004     45.658549999999998     48.527650000000001
H      46.754950000000008     49.538150000000002     46.016750000000002
H      49.559950000000001     49.392750000000007     50.062950000000008
H      47.635450000000006     47.326250000000002     45.690649999999998
H      48.584750000000000     46.715250000000005     50.309350000000002
H      46.440049999999999     51.343650000000011     48.085349999999998
H      48.089449999999999     51.362049999999996     49.784950000000002
H      47.437650000000005     44.637950000000004     46.771050000000002
H      48.457250000000002     44.748150000000003     49.075450000000011
