23

C      46.568249999999992     47.704379999999986     45.886449999999989
C      47.557650000000002     48.303219999999996     46.706850000000003
C      47.869250000000001     47.756159999999994     48.039950000000005
C      47.130450000000003     46.652499999999989     48.395650000000003
C      46.156750000000002     46.002482999999984     47.438450000000003
C      45.841850000000001     46.579459999999983     46.157750000000007
C      48.560250000000003     48.312519999999978     49.380650000000003
C      49.211649999999999     49.520249999999990     48.974149999999995
C      50.095850000000006     50.015379999999993     49.980249999999998
C      49.919449999999998     49.218549999999993     51.111850000000004
C      46.212049999999998     48.399139999999989     44.529849999999996
H      45.165350000000004     46.173723999999993     45.456350000000000
H      48.233150000000002     49.242509999999996     46.444450000000003
H      47.100650000000002     46.469448999999997     49.470050000000001
H      46.120150000000002     45.066070000000011     48.081649999999996
H      50.915950000000002     48.751159999999985     51.502849999999995
H      49.238549999999996     49.927759999999992     47.948750000000004
H      49.639749999999999     49.510569999999987     52.068550000000002
H      50.880150000000000     50.933929999999989     49.877949999999998
H      46.609850000000002     49.257189999999994     44.109849999999994
H      46.170850000000002     47.383019999999988     43.931449999999998
H      45.084049999999998     48.922479999999993     44.646749999999997
O      48.800950000000000     47.973169999999996     50.533249999999995
