18

C      48.683899999999994     47.611969999999985     47.714564999999993
C      47.302900000000001     47.941249999999997     47.302035000000004
C      49.586599999999997     48.140439999999998     46.720755000000004
C      46.807800000000000     49.049239999999998     46.543534999999999
C      49.061200000000007     46.620880000000000     48.647765000000000
C      46.444499999999998     47.275999999999996     48.236364999999999
C      49.227600000000002     49.352739999999997     46.141995000000001
C      47.893900000000002     49.844040000000007     46.197115000000004
C      48.125500000000002     45.831299999999999     49.400865000000003
C      46.838500000000003     46.474350000000001     49.318265000000004
H      50.646499999999996     47.854349999999997     46.639625000000002
H      45.696400000000004     49.226939999999999     46.525285000000004
H      50.245699999999992     46.722099999999998     48.933664999999998
H      45.353500000000004     47.072119999999998     48.170965000000002
H      50.124999999999993     49.879239999999996     45.888975000000002
H      47.775399999999998     50.840640000000008     45.722034999999998
H      48.346299999999999     45.159359999999992     50.277965000000002
H      45.945799999999998     46.137950000000004     49.929364999999997
