52

C      46.628599999999992     47.324849999999991     47.681899999999992
C      46.486500000000007     46.798949999999998     46.313099999999999
C      51.435300000000012     47.785650000000004     46.280600000000000
C      51.137200000000007     46.968049999999998     45.117300000000000
C      47.983900000000006     47.770049999999998     48.099899999999998
C      47.636600000000016     46.332049999999995     45.513399999999997
C      50.447400000000002     48.139449999999997     47.222999999999999
C      49.876300000000015     46.406450000000000     44.916300000000000
C      49.124200000000002     47.590850000000003     47.156599999999997
C      48.836100000000016     46.705849999999998     45.925699999999999
C      45.523400000000009     47.632149999999996     48.544700000000006
C      44.322600000000008     47.214749999999995     48.064099999999996
C      44.181600000000003     46.997950000000003     46.625999999999998
C      45.085500000000010     46.521349999999998     45.899999999999999
C      52.796500000000009     48.370849999999997     46.289099999999998
C      53.127300000000005     47.643450000000001     44.285899999999998
C      51.723500000000001     47.198549999999997     43.743299999999998
C      45.625300000000010     48.602249999999998     49.656599999999997
C      44.571300000000008     49.371150000000000     50.445099999999996
C      43.225300000000004     48.903849999999998     49.856299999999990
C      43.265500000000003     47.928449999999998     48.890500000000003
C      48.041000000000011     48.466650000000001     49.324799999999996
C      46.988700000000009     48.677750000000003     50.189300000000003
C      49.278199999999998     48.829449999999994     50.107500000000002
C      49.736300000000014     47.632350000000002     50.922499999999999
C      49.208100000000002     48.192449999999994     52.357299999999995
C      50.020100000000014     47.858949999999993     53.633099999999999
C      51.552400000000006     46.806950000000001     42.502799999999993
H      47.367000000000004     46.051549999999999     44.464100000000002
H      50.828500000000005     48.412149999999997     48.168999999999997
H      49.802300000000002     45.588149999999999     44.050699999999999
H      44.715100000000007     46.214349999999996     44.860699999999994
H      52.869300000000010     48.983850000000004     47.166499999999999
H      44.664699999999996     50.411850000000001     50.313800000000001
H      42.039699999999996     49.296650000000000     49.912899999999993
H      42.382400000000004     47.427549999999997     49.132099999999994
H      46.805100000000010     49.033249999999995     51.223199999999999
H      49.213400000000007     46.744349999999997     50.622500000000002
H      50.812899999999999     47.354950000000002     50.947199999999995
H      49.407200000000003     49.276049999999998     52.459199999999996
H      48.085400000000007     48.214849999999998     52.285299999999999
H      51.129100000000008     48.118549999999999     53.256699999999995
H      49.798500000000004     46.975149999999999     54.227999999999994
H      49.502099999999999     48.367049999999999     54.388000000000005
H      52.377700000000004     46.957250000000002     41.611999999999995
H      50.788499999999999     46.219349999999999     41.975499999999997
H      42.246000000000009     47.189449999999994     47.108999999999995
H      44.590900000000005     48.873149999999995     51.533799999999999
N      53.608600000000010     48.342449999999999     45.314200000000000
O      49.915500000000009     49.761749999999999     50.536500000000004
O      53.960300000000004     47.078149999999994     43.723799999999997
O      42.859300000000005     47.229649999999999     46.255699999999997
