39

C      49.215249999999997     49.643299999999996     47.159289999999984
C      49.193250000000006     50.057500000000005     48.417050000000003
C      47.987250000000003     45.169300000000007     48.938760000000002
C      47.148150000000001     45.854300000000009     49.840519999999998
C      48.962150000000001     48.306600000000003     46.862989999999996
C      49.360850000000006     49.257800000000003     49.599059999999994
C      48.738750000000003     46.069299999999998     47.919110000000003
C      47.717750000000002     47.149799999999999     50.290149999999997
C      48.818150000000003     47.515200000000007     48.106579999999994
C      48.535750000000007     48.145499999999998     49.407130000000009
C      49.466950000000004     50.649600000000007     46.039569999999998
C      49.605350000000008     52.014099999999999     46.340789999999998
C      49.245650000000005     52.234099999999998     47.740099999999998
C      49.131550000000004     51.455500000000001     48.861509999999996
C      48.138750000000002     43.774900000000002     48.863050000000001
C      47.445550000000004     43.000700000000009     49.792699999999996
C      46.612850000000002     43.685600000000008     50.648240000000001
C      46.442450000000001     45.083600000000004     50.907759999999996
C      49.897449999999999     47.927999999999997     45.758119999999991
C      50.012949999999996     48.608100000000007     44.591549999999998
C      49.630650000000003     50.018900000000002     44.757559999999998
C      49.633450000000003     53.125900000000016     45.465109999999996
C      48.564150000000005     47.034800000000004     51.394159999999999
H      49.489350000000002     49.995600000000010     50.504559999999998
H      48.715750000000007     45.498000000000005     46.985669999999999
H      48.940750000000001     53.220200000000006     48.014579999999995
H      48.878550000000004     51.757500000000007     49.925989999999999
H      48.244250000000001     43.230500000000006     47.924790000000002
H      47.325850000000003     41.994100000000003     49.594340000000003
H      46.216550000000005     43.016400000000004     51.306160000000006
H      50.204450000000001     46.895000000000010     45.789929999999998
H      50.504749999999994     48.136499999999998     43.707539999999995
H      49.617150000000002     50.760000000000005     44.026159999999990
H      50.430650000000007     54.005899999999997     45.688569999999999
H      49.468349999999994     47.692000000000007     51.239260000000002
H      45.764950000000006     46.281900000000007     52.292460000000005
H      48.450150000000001     46.191800000000001     52.082759999999993
O      49.465050000000005     53.222300000000018     44.265929999999997
O      45.495250000000006     45.740400000000008     51.722759999999994
