18

C      48.256649999999986     47.311849999999993     47.947649999999996
C      47.981249999999996     48.758550000000000     47.516050000000000
C      49.019250000000000     47.042350000000006     49.087550000000000
C      48.739749999999987     49.729450000000000     48.202449999999992
C      47.896349999999998     46.393350000000005     46.928850000000004
C      46.993849999999995     48.786149999999999     46.480150000000002
C      49.156949999999995     48.221150000000002     49.860250000000001
C      49.692250000000001     49.387149999999998     49.282549999999993
C      46.861549999999994     46.231950000000005     45.926849999999995
C      46.342349999999996     47.637750000000004     45.956749999999992
H      49.024749999999997     46.124150000000000     49.529450000000004
H      48.606849999999994     50.661949999999997     47.942450000000001
H      48.257850000000005     45.364449999999998     47.098849999999992
H      46.768649999999994     49.784950000000002     45.899250000000002
H      49.369549999999997     48.382650000000005     50.931350000000002
H      50.279250000000005     50.007749999999994     49.958949999999994
H      46.621049999999997     45.338050000000003     45.463450000000002
H      45.720749999999995     47.911750000000005     45.068649999999998
