18

C      47.846549999999986     47.831299999999999     47.258249999999997
C      47.497549999999997     48.951899999999995     48.298050000000003
C      49.202849999999984     47.574399999999997     46.994350000000004
C      48.576849999999993     49.720299999999995     48.852249999999998
C      46.909049999999993     46.787300000000002     46.795950000000005
C      46.213049999999996     49.327399999999997     47.791550000000001
C      50.234649999999995     48.448700000000002     47.541250000000005
C      49.887849999999993     49.652900000000002     48.303849999999997
C      45.851749999999996     47.349299999999999     46.146149999999999
C      45.600949999999990     48.758699999999990     46.650750000000002
H      49.462849999999996     46.823400000000007     46.127549999999999
H      48.520449999999997     50.243499999999997     49.902850000000001
H      47.057649999999995     45.673900000000003     46.926549999999999
H      45.844349999999991     50.326099999999997     48.103650000000002
H      51.324150000000003     48.275599999999997     47.144050000000000
H      51.120749999999994     50.195400000000006     48.622950000000003
H      45.174049999999994     46.394500000000008     46.097149999999999
H      44.675849999999997     49.058800000000005     46.532550000000001
