25

C      48.571949999999987     48.233349999999994     49.932699999999990
C      49.963549999999998     48.518649999999994     49.496000000000002
C      46.939649999999993     47.441050000000004     45.729100000000003
C      47.878949999999996     47.896550000000005     44.900400000000005
C      47.461949999999995     48.051550000000006     49.225400000000000
C      49.910149999999994     48.857450000000000     48.197600000000001
C      46.492849999999997     47.518250000000002     47.007999999999996
C      48.881649999999986     48.509450000000001     45.683599999999998
C      47.710249999999995     48.085350000000005     47.812300000000000
C      48.819949999999999     48.523650000000004     47.265000000000001
C      46.037149999999997     47.488650000000000     49.734099999999998
C      44.918149999999997     47.035449999999997     48.829700000000003
C      45.076849999999993     47.207149999999999     47.515999999999998
C      48.576649999999994     48.091750000000005     51.448599999999999
H      48.188949999999998     47.823250000000002     43.871099999999998
H      51.046849999999999     49.177449999999993     47.760199999999998
H      46.145149999999994     46.581249999999997     50.200499999999998
H      44.159749999999995     46.670050000000003     49.439399999999999
H      45.544549999999994     48.186450000000001     50.360900000000001
H      44.531349999999996     46.695350000000005     46.807099999999998
H      48.291449999999998     47.014749999999999     51.353299999999990
H      51.840250000000005     48.908250000000002     50.054500000000004
O      49.349249999999991     48.697350000000000     52.128900000000002
O      51.140749999999990     48.120850000000004     50.204500000000003
O      49.688349999999993     49.418750000000003     45.590499999999999
