56

C      44.769199999999998     48.189199999999992     49.373549999999994
C      45.627299999999998     47.141399999999990     48.969650000000001
C      52.023699999999998     48.242999999999995     44.408749999999998
C      45.218400000000010     49.471299999999999     49.006850000000000
C      51.977100000000000     49.502499999999998     43.798549999999992
C      50.768900000000009     47.458599999999990     44.944249999999997
C      46.581300000000006     47.324699999999993     47.862549999999999
C      50.359299999999998     51.804199999999994     43.970550000000003
C      49.396700000000003     52.013999999999996     44.897049999999993
C      48.702400000000004     47.962599999999995     46.151650000000004
C      50.653300000000009     50.340599999999995     43.938649999999996
C      46.118200000000009     49.779699999999991     48.006050000000002
C      49.756100000000011     48.411699999999996     45.246349999999993
C      46.856700000000004     48.794200000000004     47.549750000000003
C      48.858499999999999     50.696500000000000     45.361549999999994
C      47.799900000000001     49.012400000000000     46.426050000000004
C      47.508600000000008     50.390199999999993     45.810050000000004
C      49.627400000000002     49.734799999999993     44.705950000000001
C      47.229000000000006     46.212399999999995     47.366249999999994
C      48.544200000000004     46.640900000000002     46.530450000000002
C      49.340700000000005     45.560899999999997     46.159549999999996
C      50.603600000000007     46.250099999999996     45.832049999999995
C      44.396500000000003     48.271699999999996     50.855149999999995
C      44.648400000000002     47.124299999999991     51.538949999999986
C      44.997800000000005     45.908199999999994     50.965049999999991
C      45.532600000000009     45.859699999999997     49.570849999999993
C      45.871700000000004     44.762999999999998     48.649850000000001
C      46.913300000000000     44.907299999999999     47.779049999999998
C      47.856400000000001     43.863299999999995     47.109449999999995
C      49.366400000000006     44.168599999999998     46.775649999999999
C      44.638200000000005     50.798000000000002     49.522749999999988
C      43.935300000000005     50.915799999999990     50.890449999999987
C      44.081500000000005     49.557299999999998     51.655050000000003
C      44.743300000000005     44.692799999999998     51.517049999999998
H      44.690600000000003     49.528599999999997     52.681150000000002
H      53.075099999999999     47.673800000000000     44.341849999999994
H      52.878400000000006     49.816099999999992     43.271550000000005
H      50.872300000000003     52.401499999999999     43.364949999999993
H      48.947200000000002     53.259100000000004     44.718149999999994
H      46.350400000000000     50.755799999999994     47.734650000000002
H      51.483899999999998     45.590299999999999     46.239049999999992
H      43.909600000000005     46.911400000000000     52.728449999999995
H      45.700800000000008     43.639399999999995     48.998850000000004
H      47.622300000000003     42.740899999999996     47.347449999999995
H      47.569400000000009     43.869199999999999     46.077349999999996
H      49.779699999999998     43.168999999999997     46.115749999999991
H      49.900700000000008     44.192399999999999     47.779749999999993
H      45.876500000000000     51.433099999999996     49.588149999999985
H      44.042400000000008     51.432800000000000     48.673050000000003
H      43.762800000000006     52.031199999999998     51.196749999999994
H      42.924900000000001     50.594700000000003     50.567949999999996
H      43.116900000000008     49.048900000000003     52.188949999999991
H      44.456200000000003     44.449999999999996     52.683449999999993
H      46.803100000000008     52.294200000000004     45.751649999999998
N      46.475900000000003     51.229900000000001     45.982150000000004
O      44.681100000000008     43.635899999999999     50.863849999999999
