18

C      47.295949999999991     48.414149999999992     47.754699999999993
C      48.072249999999997     47.358950000000000     48.509299999999996
C      47.233749999999993     48.063350000000000     46.318500000000000
C      48.760349999999995     46.450949999999999     47.602800000000002
C      46.717250000000000     49.542349999999999     48.489499999999992
C      48.095750000000002     47.439150000000005     50.001599999999996
C      47.878549999999997     47.040550000000003     45.620999999999995
C      48.864349999999995     46.283650000000002     46.191299999999998
C      46.739649999999997     49.721749999999993     49.809399999999997
C      47.445950000000003     48.542549999999999     50.361499999999992
H      46.705949999999994     48.829249999999995     45.748899999999999
H      49.218250000000005     45.731649999999995     48.388099999999994
H      46.328349999999993     50.336750000000002     47.702500000000001
H      48.428749999999987     46.484349999999999     50.549300000000002
H      47.547249999999998     47.082050000000002     44.515900000000002
H      49.671650000000007     45.663249999999998     45.637900000000002
H      46.566749999999999     50.277849999999994     50.712199999999996
H      47.147649999999999     48.099550000000001     51.484099999999998
