49

C      49.806939999999990     48.414849999999987     48.183699999999988
C      50.425509999999996     47.111850000000004     48.141799999999996
C      45.554910000000021     46.055549999999997     46.917600000000000
C      46.265510000000013     44.808949999999996     47.177599999999998
C      48.349849999999996     48.520550000000000     47.827300000000001
C      49.580849999999998     45.883949999999999     48.331699999999991
C      46.219310000000014     47.267449999999997     47.228499999999997
C      47.633902999999997     44.759349999999998     47.521499999999996
C      47.612420000000000     47.321749999999994     47.531299999999995
C      48.268139999999995     46.048150000000007     47.797899999999998
C      50.666589999999999     49.530050000000003     48.698399999999999
C      52.045240000000007     49.648449999999997     48.876700000000000
C      52.569689999999994     48.576949999999997     48.177699999999994
C      51.901240000000001     47.286349999999999     47.981800000000000
C      44.053010000000000     46.140850000000000     46.911299999999997
C      43.533210000000011     44.979849999999999     46.364500000000000
C      44.340409999999991     43.853750000000005     45.887899999999995
C      45.494710000000005     43.742750000000001     46.756699999999995
C      49.836099999999988     50.737850000000009     48.621400000000001
C      50.542040000000000     52.044849999999997     48.864899999999999
C      51.817049999999995     52.218249999999998     49.171100000000003
C      52.555180000000000     50.961050000000000     49.260500000000000
C      48.508459999999999     50.896850000000001     48.184199999999997
C      47.790678999999997     49.664950000000005     48.011599999999994
C      46.340710000000016     49.687550000000002     48.045800000000000
C      45.540509999999990     48.612750000000005     47.429399999999994
C      43.472109999999986     47.380849999999995     47.320200000000000
C      44.097610000000010     48.707049999999995     47.587799999999994
C      49.947859999999999     44.482349999999997     48.703099999999999
C      52.233379999999997     46.012550000000005     47.125899999999994
C      50.396979999999999     43.921049999999994     49.731100000000005
H      51.248329999999996     45.540250000000000     46.842999999999996
H      53.544489999999996     48.179349999999999     48.058000000000000
H      42.540210000000002     44.397649999999999     46.827099999999994
H      43.581210000000006     43.189549999999997     45.300699999999999
H      46.203409999999998     42.969449999999995     46.644399999999997
H      50.068329999999989     52.975350000000006     49.117299999999993
H      51.982319999999987     53.030550000000005     49.776800000000001
H      53.507329999999996     51.013850000000005     49.653199999999991
H      45.821410000000000     50.717449999999999     48.092599999999997
H      42.455510000000004     47.210549999999998     47.223399999999998
H      43.657610000000005     49.754850000000005     47.645399999999995
H      53.032100000000000     45.520550000000000     47.804200000000002
H      52.905529999999999     46.521249999999995     46.375799999999998
H      49.936519999999987     44.158749999999998     50.699300000000001
H      51.115159999999996     43.037850000000006     49.843199999999989
H      50.235769999999988     44.179450000000003     47.609699999999997
H      47.987739999999995     43.727149999999995     47.913499999999999
O      47.693534000000000     51.932250000000010     48.139699999999998
