18

C      48.428799999999995     47.609299999999998     47.630449999999996
C      47.803299999999993     47.826599999999999     48.878949999999996
C      49.309199999999990     48.587800000000001     47.148549999999993
C      47.825599999999994     49.046599999999998     49.644449999999999
C      48.145699999999991     46.745600000000003     46.544249999999998
C      46.682000000000002     46.739500000000007     49.110250000000001
C      49.342299999999994     49.792500000000004     47.916149999999995
C      48.388300000000001     50.144200000000012     48.863750000000003
C      47.168999999999997     45.832400000000000     46.857750000000003
C      46.753900000000002     45.682500000000005     48.243350000000000
H      50.030999999999992     48.562600000000003     46.469349999999999
H      47.355999999999995     49.132599999999996     50.571249999999999
H      48.585399999999993     46.737400000000001     45.428750000000001
H      45.992400000000004     46.591000000000001     50.040249999999993
H      50.118899999999996     50.481900000000010     47.522050000000000
H      48.052599999999998     51.169499999999999     48.913750000000000
H      46.536099999999990     45.250500000000002     46.229549999999996
H      45.881100000000004     44.830500000000001     48.265750000000004
