6

C      48.117599999999996     48.640849999999993     48.024799999999992
C      48.370999999999995     47.362449999999995     48.060899999999990
H      48.493299999999991     49.472750000000005     47.385599999999997
H      47.254700000000000     48.956450000000004     48.905900000000003
H      48.745300000000000     46.971349999999994     47.094099999999997
H      48.245300000000000     46.527249999999995     48.731200000000001
