8

C      47.635599999999997     47.153599999999997     48.267249999999990
C      48.129300000000001     48.624199999999995     47.900949999999995
H      46.836200000000005     46.603300000000004     47.732849999999999
H      46.913200000000003     47.049399999999999     49.133950000000006
H      48.492999999999995     46.546900000000001     48.456449999999997
H      48.350999999999985     48.787500000000001     46.866049999999994
H      49.163799999999995     48.760899999999999     48.034849999999999
H      47.529899999999998     49.453099999999999     48.411849999999994
