18

C      48.296449999999993     47.479549999999996     47.785399999999996
C      47.590450000000004     48.342050000000000     48.824599999999990
C      49.610950000000003     46.991350000000004     47.947000000000003
C      48.187449999999998     48.761350000000007     49.993899999999996
C      47.927549999999997     47.186750000000004     46.421300000000002
C      46.267049999999998     48.639150000000001     48.427699999999987
C      50.174549999999996     47.342150000000004     49.189700000000002
C      49.553849999999997     48.356050000000003     49.949599999999990
C      46.616050000000001     47.802250000000001     46.143599999999992
C      45.810749999999999     48.332950000000004     47.059100000000001
H      50.207949999999997     46.568449999999999     47.126700000000000
H      47.963049999999996     49.626350000000002     50.693399999999997
H      48.240250000000003     46.373649999999998     45.664400000000001
H      45.753850000000000     49.192650000000000     49.218099999999993
H      51.203450000000004     47.026949999999999     49.378199999999993
H      50.176849999999988     49.069250000000011     50.606600000000000
H      45.982150000000004     47.687449999999998     45.306600000000003
H      44.796549999999996     48.559449999999998     46.512900000000002
