18

C      48.702700000000000     47.593799999999987     48.626399999999997
C      47.144300000000001     47.671099999999996     48.435200000000002
C      49.356999999999999     46.702600000000004     47.669499999999999
C      46.442000000000007     47.004199999999997     47.365900000000003
C      49.524799999999999     48.253100000000003     49.517700000000005
C      46.555099999999996     48.606600000000000     49.254599999999996
C      48.555000000000007     46.122299999999996     46.704700000000003
C      47.241299999999995     46.355500000000006     46.341900000000003
C      48.807200000000009     49.214900000000000     50.368099999999998
C      47.424199999999999     49.475799999999992     50.031199999999998
H      50.504100000000008     46.341399999999993     47.521799999999999
H      45.380099999999999     47.329200000000000     47.354200000000006
H      50.619900000000001     48.528099999999995     49.174999999999997
H      45.535300000000007     48.980500000000006     49.090800000000002
H      49.103099999999998     45.503699999999995     46.118000000000002
H      46.844600000000000     46.161699999999996     45.260700000000000
H      49.396200000000007     50.140100000000004     50.739300000000000
H      47.328900000000004     50.496300000000005     50.481600000000000
