18

C      47.237569999999991     48.063999999999993     47.399649999999994
C      48.425629999999998     47.468899999999998     47.925849999999997
C      47.060469999999995     48.436399999999999     45.981250000000003
C      49.487699999999997     47.205700000000000     46.967349999999996
C      46.509579999999993     48.713200000000008     48.476950000000002
C      48.630299999999998     47.242700000000006     49.389749999999992
C      48.323739999999994     48.503200000000000     45.390450000000001
C      49.427309999999999     47.831600000000002     45.704049999999995
C      46.986299999999993     48.609400000000001     49.853149999999999
C      47.957119999999996     47.765100000000011     50.445949999999996
H      46.103369999999998     48.787799999999997     45.407550000000001
H      50.219029999999997     46.564500000000002     47.229349999999997
H      45.572629999999997     49.435499999999998     48.511049999999997
H      49.428209999999993     46.682499999999997     49.788649999999990
H      48.182820000000000     49.070700000000009     44.520849999999996
H      50.427370000000003     47.896800000000006     45.175349999999995
H      46.510779999999997     49.418700000000008     50.300849999999997
H      48.123279999999987     47.715200000000003     51.479150000000004
