41

C      47.265749999999997     48.261460999999997     48.229599999999998
C      46.964850000000006     46.837561000000001     47.934300000000000
C      44.269749999999995     47.120260999999992     51.367600000000003
C      46.572350000000007     48.848361000000004     49.259200000000007
C      46.286149999999999     45.974661000000005     48.710700000000003
C      45.003750000000004     48.267660999999997     51.234400000000008
C      45.740950000000005     48.015361000000006     49.931100000000001
C      45.432150000000000     46.600360999999999     49.745099999999994
C      48.235850000000006     49.014761000000000     47.539900000000003
C      49.028349999999996     48.363060999999995     46.654000000000003
C      48.754849999999998     47.145560999999994     46.068200000000004
C      47.786250000000003     46.434160999999996     46.695100000000004
C      48.510050000000000     50.421861000000000     47.911300000000004
C      49.298949999999998     51.042661000000003     46.887799999999999
C      50.166950000000007     50.417060999999997     46.086300000000001
C      50.280250000000002     49.108961000000001     46.126800000000003
C      46.664650000000002     50.441161000000001     49.694099999999999
C      47.670350000000006     51.102360999999995     48.846600000000002
C      46.864150000000002     44.330660999999999     47.283100000000005
C      47.293849999999999     45.142361000000001     46.285200000000003
C      49.595949999999995     46.567561000000005     44.842600000000004
C      50.981450000000002     47.007061000000000     45.161799999999999
C      51.428149999999995     48.334060999999998     45.636200000000002
H      43.607049999999994     47.077060999999993     52.049599999999998
H      45.061650000000007     49.172761000000001     51.851299999999995
H      46.889350000000000     50.530761000000005     50.893299999999996
H      45.664549999999998     50.766961000000002     49.500900000000001
H      48.532149999999994     52.099360999999995     49.525000000000006
H      47.480849999999997     52.161060999999997     48.747100000000003
H      49.477950000000000     45.442360999999998     44.865400000000001
H      46.525150000000004     43.319460999999997     47.071700000000000
H      46.967149999999997     44.661360999999992     45.147800000000004
H      49.605950000000000     47.295661000000003     43.950400000000002
H      51.525050000000000     45.957061000000003     45.175300000000000
H      52.392950000000006     48.787360999999997     45.151299999999999
H      50.230049999999999     52.680539000000003     46.284300000000002
H      50.626150000000003     51.957760999999998     45.052100000000003
N      44.480150000000002     46.114561000000002     50.552100000000003
N      46.312750000000001     44.614460999999999     48.459299999999999
O      49.367049999999999     52.408240600000006     46.609000000000002
O      51.121249999999996     51.125460999999994     45.200200000000002
