18

C      47.508399999999988     47.573799999999991     48.645784999999989
C      47.576499999999996     48.698800000000006     47.682144999999991
C      47.301499999999990     46.260100000000008     48.019944999999993
C      46.897499999999994     48.507700000000000     46.422667000000004
C      48.340800000000002     47.742200000000011     49.840784999999997
C      48.363799999999998     49.907100000000014     47.973444999999998
C      46.382599999999996     46.053600000000003     46.936644999999999
C      46.544199999999989     47.158600000000007     46.181156000000001
C      49.342100000000002     48.703800000000001     49.851244999999992
C      49.133899999999997     49.933900000000008     49.184865000000002
H      48.148600000000002     45.912000000000006     48.452134999999998
H      46.797299999999993     49.007100000000008     45.417315000000002
H      48.447499999999991     47.170000000000002     50.773285000000001
H      47.551499999999990     50.659500000000008     47.539924999999997
H      45.919499999999999     45.083399999999997     46.606048999999999
H      46.137199999999993     46.824100000000001     45.226714999999999
H      50.080500000000001     48.694000000000003     50.706575000000001
H      49.277299999999997     50.916600000000003     49.970955000000004
