46

C      50.697449999999996     51.471249999999998     48.822899999999997
C      51.795349999999999     51.682550000000006     46.765599999999999
C      46.523449999999997     46.755850000000002     47.120500000000000
C      46.395949999999999     45.739750000000008     48.119100000000003
C      50.174949999999995     46.479450000000007     52.540400000000005
C      47.155249999999995     47.995450000000005     47.384999999999998
C      47.139949999999999     45.889350000000000     49.236599999999996
C      48.349549999999994     49.603150000000007     48.457000000000001
C      48.120949999999993     47.364850000000004     50.987800000000007
C      47.762149999999991     48.186650000000007     48.621800000000000
C      47.819850000000002     47.082150000000006     49.592399999999998
C      45.619749999999996     46.928550000000008     45.916200000000003
C      44.791150000000002     45.782550000000008     45.601100000000002
C      44.898150000000001     44.649350000000005     46.592500000000001
C      45.669550000000001     48.041450000000005     44.977699999999999
C      44.663650000000004     48.066250000000004     43.986300000000000
C      43.960049999999995     46.842850000000006     43.659100000000002
C      43.912849999999992     45.711550000000003     44.494000000000000
C      46.503649999999993     49.283950000000004     45.278900000000000
C      47.265149999999991     49.166350000000001     46.403700000000001
C      48.346850000000003     50.110550000000003     47.066299999999998
C      48.902249999999995     50.166150000000009     49.469500000000004
C      47.566249999999997     48.055150000000005     52.154499999999999
C      49.403849999999991     51.574050000000007     48.983599999999996
C      49.302949999999996     46.552350000000004     51.454599999999999
H      50.860349999999997     45.635449999999999     52.657899999999998
H      50.014250000000004     47.379350000000002     53.167999999999999
H      50.863749999999996     52.241250000000001     46.621099999999998
H      52.790549999999996     52.235950000000003     46.390599999999999
H      51.780050000000003     50.737550000000006     46.278100000000002
H      47.123949999999994     45.019350000000003     49.742400000000004
H      44.300449999999998     43.758749999999999     46.503999999999998
H      44.394949999999994     48.937050000000006     43.606700000000004
H      43.277149999999992     47.240450000000003     42.832000000000001
H      43.209450000000004     44.892350000000000     44.395099999999999
H      48.186449999999994     51.241650000000007     47.035899999999998
H      49.374549999999999     49.829550000000005     46.673600000000000
H      49.146249999999995     49.358049999999999     50.521999999999991
H      47.106250000000003     51.176850000000002     44.455500000000001
H      47.900049999999993     47.807950000000005     53.135599999999997
H      46.564049999999995     48.260550000000002     51.924700000000001
H      49.513449999999992     45.816150000000000     50.692300000000003
H      48.576750000000004     52.212150000000001     48.408400000000000
N      51.828249999999997     51.550750000000001     48.369700000000002
N      45.787750000000003     44.525850000000005     47.559200000000004
O      46.361850000000004     50.571650000000005     44.585200000000000
