18

C      48.750149999999991     48.138399999999997     47.890949999999989
C      47.211050000000007     48.030500000000004     48.059849999999997
C      49.426849999999995     48.474299999999999     49.202949999999994
C      46.612550000000006     48.337900000000005     49.320450000000001
C      49.360650000000000     48.055800000000005     46.637049999999995
C      46.579249999999995     47.925700000000006     46.905149999999999
C      48.821050000000007     48.140800000000013     50.446749999999987
C      47.386450000000004     48.431600000000003     50.443049999999992
C      48.515549999999998     47.585000000000008     45.509449999999994
C      47.152350000000006     47.734200000000001     45.594449999999995
H      50.442550000000004     48.184400000000011     49.079450000000001
H      45.540050000000001     48.465800000000002     49.353549999999991
H      50.459949999999999     48.462000000000003     46.704349999999998
H      45.597649999999994     47.652600000000007     47.067349999999998
H      49.378949999999996     47.603000000000009     51.217949999999995
H      47.103550000000006     48.589500000000001     51.526350000000001
H      48.873449999999998     47.658100000000005     44.473649999999999
H      46.314950000000003     47.410499999999999     44.925449999999998
