18

C      48.065399999999997     48.405899999999995     48.160749999999993
C      48.075899999999990     47.382399999999990     47.030950000000004
C      49.257199999999997     49.042099999999991     48.725250000000003
C      49.359099999999998     47.057299999999998     46.545250000000010
C      46.864199999999997     48.651899999999998     48.916550000000001
C      46.796199999999999     46.730800000000002     46.897050000000007
C      50.411500000000004     48.794600000000003     48.124850000000009
C      50.434100000000001     47.790499999999994     47.096450000000004
C      45.537399999999991     48.283999999999992     48.489550000000008
C      45.596800000000002     47.262000000000000     47.641950000000008
H      49.229799999999997     49.874200000000002     49.467050000000000
H      49.283400000000000     46.125799999999998     45.875450000000001
H      47.053200000000004     48.953000000000003     50.124549999999999
H      46.625699999999995     46.311199999999999     45.920050000000003
H      51.365600000000001     49.217500000000001     48.619850000000000
H      51.481499999999997     47.345599999999990     46.893950000000004
H      44.518500000000003     48.498300000000000     48.842950000000002
H      44.692799999999991     46.772300000000001     47.545150000000007
