45

C      51.040149999999997     45.761799999999994     49.616649999999993
C      49.911749999999998     44.879700000000000     49.331350000000000
C      45.414050000000003     50.584399999999988     49.265150000000006
C      43.717749999999995     45.970900000000000     47.502949999999998
C      50.463849999999994     47.141299999999987     49.725550000000013
C      44.677049999999994     49.769700000000000     48.269649999999999
C      43.754049999999992     47.457599999999999     47.636550000000000
C      46.630049999999997     50.090799999999987     49.834050000000005
C      48.598649999999992     45.029299999999992     48.870649999999998
C      43.474249999999998     44.789800000000000     47.350850000000008
C      48.338549999999998     48.414599999999993     49.593649999999997
C      44.688450000000003     48.328199999999995     48.249549999999999
C      49.118849999999995     47.301299999999998     49.151449999999997
C      46.947850000000003     48.735199999999992     49.459350000000001
C      48.046650000000000     46.300500000000000     48.674650000000000
C      46.683149999999998     46.524499999999989     48.311250000000001
C      46.084750000000000     47.876099999999994     48.707950000000011
C      52.407349999999994     45.755299999999991     49.120150000000010
C      52.813450000000003     44.426499999999990     49.019550000000010
C      51.842050000000000     43.422100000000000     48.913350000000008
C      50.499150000000000     43.500199999999992     49.007249999999999
C      45.313149999999993     52.042400000000001     48.956550000000007
C      44.174650000000000     52.442299999999989     48.235150000000004
C      43.245549999999994     51.590199999999996     47.622450000000001
C      43.524549999999991     50.251499999999993     47.482849999999999
C      42.794049999999999     49.266799999999989     46.690849999999998
C      43.164549999999991     47.989899999999992     46.460549999999998
C      43.463549999999998     43.428899999999999     46.767350000000008
H      46.019250000000000     45.544599999999988     48.306350000000009
H      51.196349999999995     47.987600000000000     49.956050000000005
H      47.311750000000004     50.834499999999991     50.272149999999996
H      47.974850000000004     44.263899999999992     48.343550000000008
H      42.721049999999991     42.745599999999996     47.077250000000006
H      49.149249999999995     48.835799999999992     50.189050000000009
H      53.122950000000003     46.502499999999998     49.603350000000006
H      54.017849999999996     44.168499999999995     49.084650000000011
H      52.193950000000001     42.370800000000003     48.448350000000005
H      49.605949999999993     42.654200000000003     48.694950000000006
H      46.317449999999994     52.588200000000001     49.261049999999997
H      43.897750000000002     53.629199999999997     48.287950000000009
H      42.519250000000000     51.982799999999997     46.895450000000011
H      41.982150000000004     49.934299999999993     46.046250000000001
H      42.769049999999993     47.311299999999989     45.727850000000004
H      44.913349999999994     42.891199999999998     46.736249999999998
H      42.706850000000003     43.425699999999992     45.799149999999997
