23

C      46.492749999999987     49.280999999999992     50.169194999999988
C      48.212949999999999     49.241400000000006     48.261075000000005
C      47.525050000000000     49.449300000000001     46.970534999999998
C      49.248749999999994     46.030399999999993     45.403514999999999
C      48.860249999999994     47.951799999999999     48.450175000000002
C      49.402750000000005     46.056499999999993     46.698004999999995
C      48.907849999999996     47.399399999999993     47.156165000000001
C      48.219950000000004     47.866899999999994     45.922505000000001
C      49.256049999999995     47.515800000000006     49.929784999999995
C      47.487749999999998     50.112400000000001     49.361244999999997
H      46.490249999999996     48.220800000000004     49.595314999999999
H      46.853849999999987     50.804600000000001     48.745554999999996
H      45.680349999999997     49.802699999999994     49.745654999999999
H      46.715049999999998     49.075200000000002     51.278395000000003
H      46.822949999999999     50.362599999999993     46.851124999999996
H      50.141549999999988     45.264599999999994     47.194765000000004
H      49.849249999999998     45.195399999999999     44.721604999999997
H      49.303149999999995     48.611299999999993     50.714095000000000
H      50.319650000000003     47.011000000000003     49.878524999999996
H      48.432749999999999     46.756400000000006     50.274095000000003
H      48.263349999999996     50.700300000000006     49.944995000000006
N      47.469850000000001     48.935300000000005     45.797044999999997
N      48.441749999999999     46.976899999999993     44.945785000000001
