18

C      48.235549999999996     47.672350000000002     47.259499999999989
C      47.714650000000006     48.592849999999999     48.361999999999995
C      49.571050000000000     47.635249999999999     47.461600000000004
C      48.384350000000012     49.444249999999997     49.263900000000007
C      47.275750000000002     47.091549999999998     46.432400000000001
C      46.328450000000004     48.465050000000005     48.622100000000003
C      50.431749999999994     48.246449999999996     48.293700000000001
C      49.825150000000008     49.375850000000000     49.080900000000000
C      45.907250000000005     46.721150000000009     46.859700000000004
C      45.469950000000004     47.557749999999999     47.938100000000006
H      50.221149999999994     46.982450000000000     46.820599999999999
H      48.022850000000005     49.972949999999997     50.274199999999993
H      47.870750000000001     46.536749999999998     45.725800000000007
H      46.184550000000002     49.061149999999998     49.422299999999993
H      51.291150000000002     47.588250000000002     48.015900000000002
H      50.487550000000006     50.144750000000002     49.599400000000003
H      45.477350000000001     45.855249999999998     46.421599999999998
H      44.708849999999998     47.452550000000002     48.798100000000005
