18

C      47.850297499999996     48.645744999999991     47.408199999999987
C      47.345897499999992     47.742424999999997     48.557699999999997
C      47.408697499999988     48.147265000000004     46.138199999999998
C      46.983697499999991     46.460774999999998     48.436700000000002
C      48.859899500000012     49.559305000000009     47.627700000000004
C      47.308197499999991     48.436255000000003     49.857599999999991
C      47.154697499999997     46.812534999999997     45.992500000000000
C      46.938197500000001     45.979555000000005     47.140599999999999
C      48.878624500000001     50.200695000000010     48.898799999999994
C      48.268297499999989     49.465434999999999     49.974999999999994
H      47.742297499999992     48.730345000000000     45.427599999999998
H      46.708897499999992     45.909604999999999     49.289600000000007
H      49.341202500000009     49.975895000000008     46.721699999999998
H      47.073897500000001     47.685244999999995     50.676699999999997
H      47.074797499999988     46.406464999999997     44.885700000000000
H      46.658797499999991     44.826004999999995     46.990899999999996
H      49.307883500000003     51.173995000000005     49.215399999999988
H      48.103397500000000     49.604945000000001     51.114300000000000
