5

C      47.826449999999994     48.117599999999989     47.730949999999993
H      48.877450000000003     48.444000000000003     47.384350000000005
H      47.314850000000000     47.024900000000002     47.148649999999996
H      47.145650000000003     48.975099999999998     47.331750000000000
H      47.122549999999997     48.305000000000007     48.851350000000004
