18

C      47.236149999999995     47.799749999999996     48.142799999999980
C      48.674150000000004     47.494750000000003     48.042009999999991
C      46.796750000000003     48.436550000000011     49.273759999999989
C      49.390850000000007     47.272750000000002     49.246749999999992
C      46.556849999999997     47.798549999999999     46.835872999999992
C      49.466149999999999     47.501550000000002     46.897820999999993
C      47.645750000000000     48.557549999999992     50.335309999999993
C      48.919150000000002     47.727350000000001     50.426399999999994
C      47.364649999999990     47.761450000000004     45.652880000000010
C      48.771450000000002     47.626750000000001     45.689080000000018
H      49.341850000000001     47.310450000000003     51.376419999999989
H      45.896850000000001     48.961750000000009     49.394140000000000
H      45.504849999999998     47.951050000000009     46.513017999999988
H      50.495150000000002     47.021149999999999     46.832223999999989
H      47.555950000000003     49.228249999999996     51.151279999999993
H      50.410550000000008     46.771750000000004     49.307839999999992
H      47.155050000000003     47.757750000000001     44.643880000000003
H      49.106450000000002     47.625349999999997     44.623580000000011
