7

C      49.223299999999995     48.100349999999992     48.474149999999995
C      46.572680000000005     47.652449999999995     48.004150000000003
C      47.898979999999995     47.939349999999997     48.177650000000000
H      49.903999999999996     49.163649999999997     48.357349999999997
H      46.169680000000000     48.336549999999995     47.341349999999998
H      46.096000000000004     46.836350000000003     48.613949999999996
H      49.902500000000003     47.136049999999997     48.658650000000002
