18

C      47.730149999999995     48.050049999999992     48.599299999999999
C      48.249350000000007     47.850850000000001     47.220500000000008
C      48.013249999999999     49.178950000000000     49.387899999999995
C      48.942150000000012     48.944850000000002     46.724600000000002
C      46.741550000000004     46.996650000000002     49.101800000000004
C      48.047650000000004     46.615949999999998     46.568400000000004
C      48.663450000000012     50.277149999999992     48.811200000000007
C      49.086650000000006     50.124150000000000     47.432500000000005
C      46.608750000000001     45.775950000000002     48.345200000000006
C      47.279550000000000     45.617649999999998     47.104000000000006
H      47.265450000000001     48.970650000000006     50.480899999999998
H      49.299850000000006     49.033850000000001     45.669900000000005
H      46.165350000000004     47.137650000000001     50.027800000000006
H      48.210050000000010     46.034849999999999     45.519100000000002
H      48.631450000000015     51.362650000000002     49.410000000000004
H      49.900649999999999     50.575249999999997     46.876200000000004
H      46.099350000000001     44.923949999999998     48.508400000000002
H      47.147350000000003     44.637349999999998     46.513100000000009
