18

C      48.732799999999990     48.354799999999990     47.470949999999995
C      47.286599999999993     48.546400000000006     47.351350000000004
C      49.769399999999990     49.239100000000008     47.764049999999997
C      46.936700000000002     49.932500000000005     47.748350000000002
C      48.994500000000002     46.929699999999997     47.726550000000003
C      46.222899999999996     47.794300000000007     46.706950000000006
C      49.173099999999991     50.328400000000002     48.455850000000012
C      47.823299999999989     50.100200000000001     48.878050000000002
C      47.999899999999997     46.096000000000004     47.026750000000007
C      46.607099999999988     46.515100000000004     46.743150000000000
H      50.778300000000002     49.041200000000003     48.087950000000006
H      45.837699999999998     50.127899999999997     47.702150000000003
H      49.845500000000001     46.666300000000007     48.248450000000005
H      45.221699999999998     47.963899999999995     46.871550000000006
H      49.868299999999991     50.905400000000000     49.128150000000005
H      47.536199999999994     50.539299999999997     49.691649999999996
H      48.497500000000002     45.094600000000000     47.234250000000003
H      45.897700000000000     45.397800000000004     46.308350000000004
