18

C      48.761249999999990     48.240199999999987     48.271000000000001
C      47.386350000000007     47.787300000000002     48.202600000000004
C      49.698550000000012     47.073899999999995     48.132700000000000
C      46.926649999999995     46.553299999999993     47.478900000000010
C      49.388649999999998     49.388599999999997     48.809200000000004
C      46.528949999999995     48.840500000000006     48.483400000000003
C      49.196749999999994     45.877499999999998     47.669899999999998
C      47.743449999999996     45.604399999999998     47.164600000000007
C      48.494650000000007     50.401300000000006     48.712299999999999
C      47.017650000000003     50.082499999999996     48.597100000000012
H      50.653750000000002     47.130700000000004     48.533199999999994
H      45.954750000000004     46.376499999999993     47.296600000000012
H      50.562049999999999     49.631000000000000     49.157299999999992
H      45.346249999999998     49.002200000000002     48.413499999999999
H      49.954150000000013     45.194900000000004     47.323800000000006
H      47.815449999999998     44.547499999999999     46.842700000000008
H      48.454750000000004     51.452500000000001     48.874799999999993
H      46.475650000000002     51.133200000000002     48.620300000000000
