18

C      48.168749999999989     48.299489999999992     47.631349999999998
C      48.336150000000004     47.315889999999996     48.803750000000015
C      47.710149999999999     49.702990000000000     47.944750000000006
C      47.832849999999993     47.909589999999994     50.017250000000011
C      48.505949999999999     48.218189999999993     46.261850000000003
C      48.986350000000002     46.218559999999997     48.416149999999995
C      46.808350000000004     49.901789999999991     48.916550000000008
C      46.825749999999999     48.956289999999996     50.002650000000003
C      49.288449999999997     46.971469999999997     45.986350000000002
C      49.440449999999998     46.146109999999993     47.047150000000002
H      47.742149999999995     50.423589999999990     47.039350000000006
H      47.947350000000000     47.605669999999989     50.860850000000006
H      48.190449999999998     48.524089999999987     45.216550000000005
H      49.135949999999994     45.500670000000000     49.334050000000012
H      46.287549999999996     50.907589999999999     49.027549999999998
H      46.625450000000001     49.490289999999987     51.052749999999996
H      49.626549999999995     46.827320000000000     44.947250000000004
H      49.712450000000004     45.092410000000001     46.820250000000001
