18

C      48.296649999999993     48.356999999999992     47.679799999999993
C      47.282550000000001     49.005600000000001     48.467399999999998
C      49.657550000000001     48.433499999999995     47.822000000000003
C      47.744549999999997     50.140999999999991     49.355999999999995
C      47.850349999999999     47.410799999999995     46.577300000000001
C      45.938649999999996     48.453599999999994     48.301200000000009
C      50.056349999999995     49.117899999999999     48.984000000000002
C      49.141350000000003     50.017799999999994     49.563299999999998
C      46.935849999999995     46.442300000000003     47.111800000000002
C      45.941849999999995     47.252499999999998     47.573900000000002
H      50.527549999999991     47.898499999999999     47.067100000000003
H      46.893850000000000     50.682699999999997     49.789900000000003
H      48.802049999999994     47.399099999999997     45.681500000000000
H      45.513649999999998     49.029600000000002     49.037799999999997
H      51.113950000000003     49.371600000000001     49.319999999999993
H      49.698449999999994     50.639200000000002     50.318500000000000
H      46.860349999999997     45.317300000000003     46.985599999999998
H      44.886049999999997     46.727300000000000     47.872200000000007
