17

C      50.444499999999991     48.010799999999996     51.212788499999995
C      47.979400000000005     47.341500000000003     46.012468500000004
C      49.048600000000000     46.882500000000007     46.903388500000005
C      48.984900000000003     47.210300000000004     48.325378499999999
C      48.050699999999999     48.014000000000003     48.962528500000005
C      46.967199999999998     48.194400000000002     48.097398500000004
C      46.961800000000004     48.056899999999999     46.644118500000005
C      45.628999999999998     48.739800000000002     48.490138500000000
H      48.063800000000008     47.577700000000007     44.787211500000005
H      50.044900000000005     46.225600000000000     47.132198500000001
H      49.876700000000007     47.242800000000003     48.901088500000000
H      46.220300000000002     48.875000000000000     45.924498500000006
H      45.686500000000002     48.914299999999997     49.694128500000005
O      51.142100000000006     47.129900000000006     50.910138500000002
O      44.857899999999994     49.321300000000001     47.765618500000002
S      48.205500000000008     49.251900000000006     50.716858500000001
S      50.174399999999999     49.774400000000000     51.063598500000005
