18

C      48.554449999999996     48.046699999999994     48.434061999999997
C      47.806049999999999     48.055599999999998     47.224311999999998
C      48.775350000000003     49.270300000000006     49.219151999999994
C      47.322550000000000     49.275700000000001     46.697112000000004
C      48.550650000000005     46.850399999999993     49.223141999999996
C      47.393750000000004     46.801400000000001     46.691721999999999
C      48.501650000000005     50.402100000000004     48.548112000000003
C      47.769350000000003     50.466300000000004     47.317081999999999
C      47.805350000000004     45.754199999999997     48.690821999999997
C      47.745650000000005     45.539900000000003     47.302921999999995
H      49.275149999999996     49.111000000000004     50.221872000000005
H      46.709450000000004     49.469499999999996     45.778127999999995
H      49.290549999999996     46.685000000000002     50.011461999999995
H      46.920450000000002     46.537300000000002     45.812401999999992
H      48.702449999999999     51.341200000000001     48.994011999999998
H      47.583449999999999     51.340699999999998     46.731061999999994
H      47.608750000000001     44.787499999999994     49.135921999999994
H      47.368650000000002     44.658799999999999     46.894642000000005
