18

C      47.720199999999991     48.038249999999991     48.923649999999988
C      48.483600000000003     49.027390000000011     48.152450000000002
C      48.022600000000004     46.634270000000001     48.827550000000002
C      49.823000000000000     48.644670000000005     47.891750000000002
C      46.249500000000005     48.248320000000007     49.002650000000003
C      47.738300000000002     49.969149999999999     47.203949999999992
C      49.356900000000003     46.481560000000002     48.414949999999990
C      50.463299999999997     47.373590000000007     48.265149999999991
C      45.579700000000010     49.047230000000013     48.141949999999994
C      46.371600000000008     49.928500000000014     47.189149999999998
H      47.295000000000009     45.891320000000007     48.950149999999994
H      50.002100000000006     49.394490000000005     47.155450000000002
H      45.521200000000000     47.740650000000002     49.592950000000002
H      48.534799999999997     50.396200000000007     46.550649999999990
H      49.747099999999996     45.434629999999999     48.178150000000002
H      51.479999999999997     47.186999999999998     48.208150000000003
H      44.520000000000003     48.905660000000012     48.186449999999994
H      45.884200000000000     50.565370000000001     46.407049999999998
