18

C      47.597049999999989     47.257499999999993     47.551549999999992
C      48.498150000000003     48.446899999999992     47.433349999999997
C      46.257749999999994     47.262599999999999     47.208750000000002
C      47.936050000000009     49.783600000000000     47.713749999999997
C      48.422949999999986     46.014800000000001     47.550849999999997
C      49.856349999999992     48.396200000000000     47.795549999999999
C      45.703949999999999     48.580700000000000     47.343449999999997
C      46.580649999999999     49.780500000000004     47.531250000000000
C      49.595749999999995     46.129700000000000     48.393350000000005
C      50.369650000000007     47.262599999999999     48.512849999999993
H      45.851450000000000     46.425200000000004     46.780949999999997
H      48.484849999999994     50.781100000000002     47.408049999999996
H      48.107950000000002     45.092199999999998     46.800849999999997
H      50.589949999999995     49.206800000000008     47.604749999999996
H      44.658549999999998     48.593499999999999     47.571249999999999
H      46.086250000000000     50.920499999999997     47.117550000000001
H      50.019749999999995     45.079500000000003     48.836350000000003
H      51.341450000000002     47.345599999999997     49.219050000000003
