6

C      47.238799999999991     48.263799999999989     47.891449999999992
C      48.566099999999999     47.852900000000005     47.969350000000006
H      47.040799999999997     49.307800000000000     47.832949999999997
H      46.455199999999998     47.467700000000008     47.417749999999998
H      48.422899999999998     46.692200000000000     47.982550000000003
H      49.544800000000002     48.127200000000002     48.582250000000002
