77

C      48.639799999999994     49.752174999999987     47.857034999999982
C      47.724599999999995     50.835984999999994     47.579304999999991
C      45.608900000000006     50.285474999999991     51.578824999999995
C      48.033900000000003     49.044004999999991     48.976815000000002
C      46.276200000000003     49.057274999999997     51.103764999999996
C      45.703599999999994     51.254284999999996     50.698985000000008
C      46.896299999999997     49.409584999999993     49.829915000000000
C      46.498699999999999     50.821884999999995     49.526514999999989
C      50.026899999999998     50.127804999999995     47.652514999999994
C      50.461600000000004     51.271144999999990     46.855830999999995
C      49.388699999999986     51.894794999999988     46.086683999999991
C      47.997200000000007     51.585534999999993     46.433385999999999
C      51.082699999999988     49.536034999999991     48.379955000000010
C      52.423699999999997     49.998654999999985     48.184154999999990
C      52.738199999999992     51.171914999999984     47.515084999999999
C      51.806600000000003     51.759914999999992     46.729951000000000
C      50.777799999999999     48.540354999999991     49.422285000000002
C      49.025299999999987     48.026642999999993     49.276845000000009
C      49.772099999999995     52.486784999999998     44.861634999999978
C      49.142199999999988     53.536644999999993     44.247434999999996
C      47.781099999999995     53.643144999999990     44.688235000000020
C      47.279799999999994     52.551714999999994     45.594535000000008
C      46.036100000000005     51.922894999999997     45.236035000000030
C      49.361500000000007     54.221464999999995     42.773835000000020
C      49.121300000000005     55.475964999999995     42.695735000000028
C      48.778899999999993     43.293715000000006     50.592765000000000
C      47.366500000000002     42.723915000000019     50.667574999999999
C      46.906899999999993     46.518315000000001     47.587454999999991
C      49.365200000000002     44.121414999999985     49.504395000000002
C      46.738900000000001     43.298415000000013     49.618674999999996
C      48.316100000000006     46.339915000000005     48.169255000000007
C      46.335700000000003     45.339614999999988     47.972594999999998
C      48.408199999999994     45.231615000000005     48.874434999999991
C      47.131199999999993     44.453114999999997     48.850594999999998
C      49.686899999999994     42.279615000000021     51.043124999999989
C      49.067099999999996     41.387515000000015     52.037364999999994
C      47.768100000000004     40.907615000000007     52.361175000000003
C      46.909599999999998     41.730214999999987     51.589525000000009
C      49.679699999999997     40.432214999999999     53.013904999999994
C      45.442899999999995     41.212415000000000     51.328285000000008
C      44.284400000000005     42.045214999999999     51.918404999999993
C      43.229799999999997     40.860314999999993     51.981044999999995
C      49.411999999999992     47.241815000000017     47.708124999999995
H      45.209599999999995     50.547784999999990     52.668925000000002
H      46.238100000000003     48.082101999999992     51.557355000000001
H      45.278300000000002     52.287414999999996     50.928434999999993
H      53.264599999999987     49.654744999999991     48.872084999999998
H      53.761399999999995     51.655374999999992     47.372365000000002
H      52.387799999999999     52.560254999999998     46.106403999999998
H      51.123599999999996     47.635604999999991     49.755795000000006
H      48.626900000000006     47.489761999999992     50.123665000000003
H      50.800799999999995     52.377544999999984     44.471834999999999
H      47.125500000000002     54.017415000000000     43.931635000000000
H      44.527599999999993     51.967204999999993     43.826034999999990
H      50.088300000000004     55.864794999999994     42.925934999999996
H      48.450100000000006     56.143185000000003     43.390834999999996
H      50.207200000000000     49.031984999999992     50.253715000000000
H      46.476100000000002     47.351515000000013     47.036554999999993
H      50.358199999999997     44.454915000000014     49.710754999999992
H      45.620599999999996     43.174714999999999     49.683174999999991
H      45.228700000000003     45.205514999999991     47.686994999999996
H      50.686400000000006     42.393014999999991     50.732614999999996
H      47.376400000000004     40.141014999999989     53.151195000000001
H      49.173599999999993     40.487714999999987     53.958065000000005
H      43.960099999999997     42.699115000000006     51.156345000000002
H      44.418400000000005     42.750814999999996     52.899464999999992
H      42.238600000000005     41.472414999999998     51.843715000000003
H      43.008499999999998     40.202714999999991     52.919055000000000
H      43.273499999999999     40.003315000000001     51.287625000000006
H      49.280400000000000     47.910450999999995     46.989215000000002
H      50.217199999999991     46.466614999999990     47.664604999999995
N      46.753600000000006     51.393704999999997     48.345084999999997
O      45.157200000000003     52.564234999999996     44.239135000000019
O      45.447999999999993     50.961754999999997     45.555434999999989
O      49.890100000000004     53.518754999999985     42.041934999999995
O      50.740099999999998     39.856814999999997     52.977324999999993
O      45.277100000000004     40.161514999999987     50.715244999999996
