18

C      47.605549999999994     47.810049999999997     48.483599999999996
C      48.489630000000005     48.063350000000000     47.404299999999999
C      46.747630000000001     48.778950000000002     49.187600000000010
C      48.208309999999997     49.422550000000001     47.060700000000004
C      47.364130000000003     46.545450000000002     48.903300000000009
C      49.381309999999999     46.961449999999999     47.027500000000011
C      46.963020000000000     50.182450000000003     48.982000000000006
C      47.648519999999991     50.488250000000001     47.749200000000009
C      48.039379999999994     45.410650000000004     48.485000000000007
C      49.307270000000003     45.646450000000002     47.723700000000001
H      45.762420000000006     48.570750000000004     49.805900000000001
H      48.959310000000002     49.557450000000003     46.194099999999999
H      46.369429999999994     46.314050000000002     49.347300000000011
H      50.237579999999994     47.218650000000004     46.515999999999998
H      46.430499999999995     50.810350000000000     49.691900000000011
H      47.839560000000006     51.522750000000002     46.943200000000012
H      47.734440000000006     44.477249999999998     48.292400000000008
H      49.673800000000000     44.740050000000004     47.356200000000008
