8

C      47.502199999999995     47.806049999999999     47.603099999999991
C      48.284000000000006     48.527550000000005     48.635499999999993
H      46.881700000000002     48.589649999999992     47.220599999999997
H      46.789500000000004     46.703050000000005     47.856399999999994
H      48.130899999999997     47.571050000000000     46.755799999999994
H      49.210499999999996     48.865849999999995     48.311099999999996
H      48.727100000000007     47.609549999999999     49.159899999999993
H      47.702399999999997     49.296949999999995     49.244200000000006
