41

C      47.996299999999998     48.247119999999995     48.202699999999993
C      46.782399999999996     48.239020000000004     49.080399999999990
C      49.095900000000000     52.322210000000005     49.590199999999989
C      49.122799999999998     49.081519999999990     47.947099999999999
C      46.862200000000001     49.384319999999995     49.802500000000002
C      49.978499999999997     51.265248000000007     49.023899999999990
C      49.111400000000003     50.085320000000003     48.968399999999995
C      47.967100000000002     50.498420000000003     49.622999999999998
C      48.290499999999994     46.988120000000002     47.537799999999997
C      47.680800000000005     45.772720000000000     47.876299999999993
C      46.432100000000005     45.926819999999999     48.810299999999991
C      45.837100000000007     47.152419999999999     49.246699999999997
C      49.384299999999996     46.650519999999993     46.575199999999988
C      49.763300000000001     45.331719999999997     46.378299999999989
C      48.920800000000000     44.119619999999991     46.493099999999991
C      47.854799999999997     44.514719999999990     47.294699999999999
C      50.192000000000007     49.015719999999995     46.855899999999998
C      50.149400000000000     47.765219999999992     46.099499999999999
C      50.762299999999996     45.441619999999993     45.246099999999991
C      46.782100000000000     43.393020000000000     47.706499999999998
C      45.870900000000006     50.027819999999998     50.798899999999996
C      51.420100000000005     51.418709000000000     48.561900000000001
H      49.354200000000006     53.374180000000003     49.634699999999988
H      46.100200000000001     45.003019999999999     48.902999999999999
H      50.590100000000007     47.957919999999994     44.978999999999992
H      50.692700000000002     49.766320000000000     46.298499999999997
H      51.661400000000000     45.819020000000002     45.806699999999999
H      46.706800000000001     43.478119999999997     48.803399999999989
H      48.206199999999995     43.006019999999999     45.242399999999996
H      44.868399999999994     50.335819999999991     50.317399999999999
H      44.074200000000005     47.927019999999992     50.149999999999999
H      45.929100000000005     49.524020000000000     51.759200000000000
H      51.780600000000007     50.996688000000013     49.458599999999997
H      51.493399999999994     50.472019999999993     48.006399999999992
H      51.925799999999995     52.529930000000000     48.768999999999998
H      46.037400000000005     50.749720000000003     51.665099999999988
N      47.959400000000002     51.768692000000009     50.000499999999995
O      50.839399999999998     44.780020000000000     44.240800000000000
O      46.199200000000005     42.625819999999997     46.956799999999994
O      48.979699999999994     42.976120000000002     45.798999999999999
O      44.509200000000007     47.222819999999992     49.512200000000000
