18

C      48.362099999999998     48.973349999999996     47.620395999999985
C      49.090700000000005     48.216549999999998     48.669325999999998
C      48.897600000000004     48.930449999999993     46.213775999999996
C      49.691700000000004     47.019450000000006     48.301956000000004
C      47.152700000000003     49.632249999999999     47.842455999999999
C      48.572300000000006     48.682550000000006     50.011595999999997
C      49.691600000000001     47.741650000000007     45.952705999999992
C      49.875999999999998     46.688149999999993     46.877065999999999
C      46.481699999999996     49.475949999999997     49.001465999999994
C      47.171100000000003     48.890850000000000     50.153655999999998
H      48.503700000000002     49.432450000000003     45.324376000000001
H      50.294000000000004     46.480450000000005     48.922516000000002
H      46.421799999999998     49.952749999999995     46.985755999999995
H      48.880800000000001     48.013249999999999     50.966785999999999
H      49.938600000000001     47.606150000000000     44.803523999999996
H      50.493699999999997     45.967749999999995     46.477546000000004
H      45.506300000000003     50.032250000000005     49.154365999999996
H      46.780499999999996     48.860349999999997     51.196476000000004
