18

C      48.651123999999996     47.848599999999990     47.782699999999991
C      48.891324000000004     47.746499999999997     49.208399999999997
C      50.280924000000006     47.883899999999997     49.411400000000000
C      51.130823999999997     48.788200000000003     48.643400000000000
C      50.692923999999998     49.132500000000007     47.347200000000001
C      49.624023999999999     48.421599999999998     46.804700000000011
C      47.223524000000005     47.240499999999997     47.378600000000006
C      46.065524000000003     48.226399999999998     47.226799999999997
C      44.915624000000001     47.590900000000005     47.410300000000007
H      48.811923999999998     46.930400000000006     50.002200000000002
H      50.568223999999994     47.611100000000008     50.342500000000001
H      52.075476000000002     49.180599999999998     48.941299999999998
H      51.244709200000010     49.961799999999997     46.787199999999999
H      49.473524000000005     48.725899999999996     45.657499999999999
H      46.366824000000001     49.155600000000007     46.534300000000002
H      44.617724000000003     46.492300000000000     47.792900000000003
H      43.924523999999998     48.167000000000002     47.178200000000004
O      47.151924000000001     46.038200000000003     47.405900000000003
