5

C      48.034649999999999     47.595249999999993     48.236349999999995
H      47.984250000000003     47.828949999999999     47.141850000000005
H      48.411049999999996     48.675950000000000     48.396050000000002
H      48.917049999999996     47.324050000000000     48.858149999999995
H      47.082950000000004     47.531649999999999     48.838650000000001
