18

C      48.376719999999999     47.766449999999992     47.425249999999991
C      47.366120000000002     47.915650000000007     48.551449999999996
C      48.307720000000003     48.046050000000001     46.078049999999998
C      46.226420000000005     48.720950000000009     48.080649999999999
C      49.695520000000002     47.265850000000007     47.655949999999997
C      47.529620000000001     47.459150000000001     49.871649999999995
C      47.463720000000002     49.237850000000002     46.125749999999996
C      46.312740000000005     49.356050000000003     46.906849999999999
C      49.924920000000000     46.730449999999998     49.016649999999991
C      48.739820000000009     46.618749999999999     49.816250000000004
H      49.065020000000004     47.855350000000008     45.388149999999996
H      45.664340000000003     48.989049999999999     48.899250000000002
H      50.309420000000003     46.890750000000004     46.817250000000001
H      46.855429999999998     47.743749999999999     50.754950000000001
H      47.580420000000004     50.123449999999998     45.245049999999999
H      45.400379999999998     49.945850000000000     46.591850000000001
H      50.599620000000002     45.876550000000002     49.440549999999995
H      48.709519999999998     46.036450000000009     50.718649999999997
