18

C      48.690750000000001     47.471399999999996     48.342699999999994
C      47.890150000000006     47.417200000000008     47.125800000000005
C      49.858249999999998     48.300399999999996     48.430399999999999
C      47.870850000000004     48.671500000000009     46.333900000000007
C      48.316250000000011     46.871800000000007     49.601499999999994
C      46.616349999999997     46.648600000000002     47.207900000000002
C      50.156050000000008     48.899900000000002     47.188899999999997
C      49.122950000000003     49.294200000000004     46.200700000000005
C      46.887250000000009     46.577600000000004     49.700200000000002
C      46.225650000000002     46.308500000000009     48.453399999999995
H      50.662550000000010     48.449799999999996     49.326500000000003
H      46.982450000000000     48.953800000000001     46.053500000000007
H      48.947350000000000     47.323599999999999     50.486600000000003
H      45.484850000000009     46.312600000000003     46.627000000000002
H      50.973950000000002     49.532700000000006     46.913900000000005
H      49.448350000000005     49.976399999999998     45.339800000000004
H      46.242550000000008     46.729900000000001     50.660199999999996
H      45.026049999999998     46.023600000000002     48.563600000000001
