7

C      47.953954999999993     48.067799999999991     47.956599999999995
C      47.417955000000006     47.891100000000002     46.781100000000002
C      48.414115000000010     48.366700000000002     49.116599999999998
H      48.152685000000005     47.600100000000005     46.050000000000004
H      46.509675000000001     48.399899999999995     46.357400000000005
H      47.857565000000008     47.887700000000002     49.949999999999996
H      49.490324999999999     48.268499999999996     49.235700000000001
