6

C      48.384299999999989     48.110749999999989     47.386599999999987
C      47.275799999999990     47.815749999999994     48.169100000000000
H      48.619399999999999     49.160449999999997     47.029399999999995
H      49.295299999999997     47.359049999999996     47.415199999999999
H      47.408899999999988     46.839550000000003     48.970600000000005
H      46.704700000000003     48.893950000000004     48.603800000000007
