5

C      47.986649999999997     48.218349999999987     48.148599999999988
H      47.778849999999998     48.962449999999997     48.892599999999995
H      47.649350000000005     47.037550000000003     48.227200000000003
H      48.817249999999994     48.550649999999997     47.433799999999998
H      47.182750000000006     48.451649999999994     47.107400000000005
