6

C      47.790399999999991     48.632299999999987     47.658899999999988
C      48.189399999999999     47.409300000000002     48.340500000000006
H      47.907800000000002     49.509500000000003     48.229500000000002
H      47.172300000000000     48.485100000000003     46.810299999999998
H      48.305000000000000     46.490499999999997     47.900499999999994
H      48.827700000000000     47.543499999999995     49.189700000000002
