18

C      48.733799999999995     47.765499999999996     47.835299999999989
C      47.378000000000000     47.516800000000003     47.370900000000006
C      49.386000000000010     48.721600000000002     46.891199999999998
C      46.669899999999998     48.589700000000008     46.577299999999994
C      49.334900000000005     46.941900000000004     48.845700000000008
C      46.531300000000002     46.571300000000008     48.005700000000004
C      48.704300000000003     49.737600000000000     46.115700000000004
C      47.322800000000001     49.683500000000002     46.016300000000001
C      48.213500000000003     46.165900000000008     49.462200000000010
C      46.887500000000003     45.788000000000004     49.145000000000010
H      50.498599999999996     48.736900000000006     46.758600000000001
H      45.501400000000004     48.531300000000002     46.786100000000005
H      49.707200000000000     46.215000000000003     48.200699999999998
H      45.554100000000005     46.662900000000008     47.625100000000003
H      49.386900000000004     50.088700000000003     45.364099999999993
H      47.084600000000002     50.633499999999998     45.460499999999996
H      47.992100000000008     45.838200000000001     50.635900000000007
H      46.122200000000007     45.366500000000002     49.738000000000000
