18

C      48.288249999999991     47.424299999999995     48.142619999999994
C      48.053350000000002     48.866900000000001     48.415439999999997
C      49.348250000000000     47.167200000000008     47.271799999999999
C      49.013750000000009     49.755700000000004     48.301139999999997
C      47.413049999999998     46.215700000000005     48.514040000000001
C      46.692850000000000     49.129100000000008     48.653239999999997
C      50.440249999999999     48.036900000000003     47.329609999999995
C      50.325849999999996     49.352900000000005     47.842239999999997
C      46.241450000000000     46.782200000000003     48.978739999999995
C      45.849750000000000     48.151000000000010     49.154840000000000
H      49.418849999999999     46.175100000000000     46.800459999999994
H      48.969249999999995     50.795800000000000     48.409740000000006
H      47.477249999999998     45.204200000000000     48.013639999999995
H      46.263149999999996     50.263100000000009     48.637939999999993
H      51.409849999999999     47.684899999999999     46.886989999999997
H      51.330649999999999     49.820700000000002     48.153920000000006
H      45.480350000000001     46.000800000000005     49.199540000000006
H      44.590150000000001     48.450900000000004     49.030040000000007
