6

C      48.280399999999993     48.178399999999996     48.580300000000001
C      47.712400000000002     47.817999999999998     47.375900000000009
H      48.981700000000004     49.030500000000004     48.473500000000008
H      47.800400000000003     47.617999999999995     49.452399999999997
H      47.702900000000000     48.408599999999993     46.547600000000003
H      47.018299999999996     46.969499999999996     47.369700000000009
