7

C      47.757000000000005     48.019349999999989     47.741999999999990
C      48.039800000000000     46.792850000000001     47.212800000000001
C      47.453900000000004     49.220149999999990     48.079600000000013
H      49.156899999999993     46.204549999999998     47.568899999999999
H      47.250500000000002     46.242249999999999     46.757999999999996
H      47.639700000000005     49.605149999999995     49.242000000000004
H      46.843100000000007     49.795450000000002     47.304000000000002
