18

C      48.683449999999993     47.518899999999988     47.939764999999994
C      47.614150000000002     48.221900000000005     48.612184999999997
C      49.511350000000000     48.466899999999995     47.167545000000004
C      47.873150000000003     49.613100000000003     48.870784999999998
C      48.424450000000000     46.143299999999996     47.465575000000001
C      46.391849999999998     47.498000000000005     49.013684999999995
C      49.917350000000006     49.750200000000007     47.568834999999993
C      48.973250000000000     50.370199999999997     48.430385000000001
C      47.240249999999996     45.581500000000005     47.843074999999999
C      46.256350000000005     46.155000000000001     48.712084999999988
H      50.034950000000002     47.895300000000006     46.303714999999997
H      47.119049999999994     49.617300000000014     49.682185000000004
H      49.093449999999997     45.816000000000003     46.555334999999999
H      45.833850000000005     47.864000000000004     49.696285000000003
H      50.652949999999997     50.215600000000009     47.057625000000002
H      49.121249999999996     51.334800000000001     49.016784999999999
H      47.059249999999999     44.665199999999999     47.366654999999994
H      45.347050000000003     45.524299999999997     48.964185000000001
