12

C      49.062299999999993     46.993550999999997     46.616299999999995
C      47.527700000000003     47.196922999999984     48.175699999999992
C      47.168999999999990     48.569170000000000     47.742400000000004
C      47.666599999999995     48.723969999999994     46.458600000000004
C      46.722400000000000     46.978067999999993     49.297399999999996
H      49.739600000000003     46.260710000000003     46.119799999999998
H      47.480499999999999     49.739289999999997     45.757599999999996
H      46.954400000000000     49.234649999999988     49.480899999999991
N      48.469699999999996     47.949759999999984     45.846400000000003
N      48.504799999999996     46.416809999999998     47.691599999999994
O      46.260399999999997     46.549909999999983     50.242400000000004
O      46.723599999999998     49.546279999999996     48.643500000000003
