5

C      48.134049999999995     47.761449999999989     47.781949999999995
H      48.855850000000004     47.144950000000001     47.663750000000000
H      47.144149999999996     47.427650000000000     47.741650000000000
H      48.380350000000007     48.855049999999999     47.259449999999994
H      48.478750000000005     48.059150000000002     48.740550000000006
