30

C      47.540799999999990     47.383574999999993     46.767999999999994
C      47.277999999999999     48.404674999999990     47.782700000000006
C      51.858899999999998     46.331834999999998     48.967700000000008
C      51.649099999999997     47.215624999999996     50.036599999999993
C      48.784799999999997     46.538815000000000     46.970399999999998
C      48.338500000000003     48.551964999999996     48.725700000000003
C      50.453499999999998     48.006445000000006     49.992800000000003
C      49.801899999999996     46.515425000000000     48.186399999999999
C      49.364500000000000     47.613475000000001     49.017700000000005
C      46.475800000000000     46.955194999999996     45.940399999999997
C      45.366199999999999     47.692335000000007     45.883099999999999
C      44.831399999999995     48.494214999999997     46.994299999999996
C      45.812999999999995     48.687544999999993     48.144800000000004
C      50.687499999999993     49.209214999999993     50.871800000000000
C      45.837399999999995     49.004574999999996     49.460400000000000
C      44.036499999999997     49.658614999999990     46.978799999999993
H      52.862800000000000     46.209074999999999     48.986300000000000
H      52.360099999999996     47.506985000000000     50.745199999999997
H      48.568800000000003     49.549005000000001     48.923299999999998
H      46.652099999999997     46.310884999999999     45.050600000000003
H      51.464300000000001     49.456025000000004     51.589600000000004
H      44.864200000000004     49.183585000000001     50.044100000000000
H      46.593200000000003     49.182594999999999     50.234200000000001
H      43.137200000000000     49.790275000000001     46.350800000000000
H      44.216400000000000     47.629964999999999     44.410399999999996
H      43.844400000000000     50.065585000000006     47.950800000000001
N      50.980799999999995     45.934414999999994     48.084299999999999
O      49.665699999999994     49.855544999999999     50.960200000000000
O      44.613399999999992     47.039645000000000     44.874300000000005
O      49.297000000000004     46.103274999999996     46.046800000000005
