18

C      47.643749999999997     47.797149999999995     47.554099999999998
C      48.187549999999995     48.440449999999998     48.779300000000006
C      48.289049999999996     48.203950000000006     46.340100000000007
C      49.527149999999999     49.005150000000000     48.901499999999999
C      46.307650000000002     47.373950000000001     47.302300000000002
C      47.123550000000002     48.351550000000003     49.798599999999993
C      49.595750000000002     48.746349999999993     46.467600000000004
C      50.207850000000001     49.086449999999999     47.727300000000000
C      45.564649999999993     46.848950000000002     48.257099999999994
C      45.895549999999993     47.638249999999999     49.564899999999994
H      48.131449999999994     47.959950000000006     45.283699999999996
H      50.070850000000000     49.083550000000002     49.932599999999994
H      45.951249999999995     47.123049999999999     46.291300000000007
H      47.546749999999996     48.868449999999996     50.716300000000004
H      50.335550000000005     49.079650000000001     45.695200000000000
H      51.255749999999999     49.663449999999997     47.876500000000007
H      44.744250000000001     46.336550000000003     48.047499999999999
H      45.106249999999996     48.298749999999998     50.018699999999995
