18

C      48.147149999999996     48.524649999999994     48.946149999999989
C      47.179549999999992     47.780149999999999     48.226250000000007
C      49.234849999999994     47.815750000000001     49.536050000000003
C      47.373949999999994     46.329250000000002     48.141950000000008
C      48.250450000000001     50.045449999999995     48.863950000000003
C      46.323250000000002     48.464849999999998     47.341049999999996
C      49.307749999999999     46.412950000000002     49.630250000000004
C      48.517749999999992     45.544550000000001     48.811050000000009
C      47.504249999999999     50.464149999999997     47.733550000000008
C      46.811650000000000     49.625250000000001     46.812250000000006
H      50.134850000000000     48.260849999999998     49.834249999999997
H      47.355249999999998     45.540050000000001     47.366050000000001
H      48.503749999999997     50.828649999999989     49.652350000000013
H      45.722250000000003     47.812849999999997     46.548850000000002
H      50.277749999999997     46.231450000000002     50.109250000000003
H      48.820949999999996     44.507950000000001     48.654449999999997
H      47.364649999999997     51.492049999999999     47.555549999999997
H      46.555449999999993     49.989449999999998     45.890749999999997
