18

C      48.074449999999992     47.761299999999991     48.718649999999997
C      48.074750000000009     48.048899999999996     47.187250000000006
C      47.118949999999998     46.829100000000004     49.126850000000005
C      47.208849999999998     47.297800000000002     46.291849999999997
C      48.864249999999998     48.622199999999999     49.420149999999992
C      48.866749999999996     49.158800000000006     46.729249999999993
C      46.203850000000003     46.261999999999993     48.206450000000004
C      46.155349999999999     46.475199999999994     46.669049999999999
C      49.450650000000010     49.833099999999995     48.995249999999999
C      49.700550000000007     49.848499999999994     47.589550000000003
H      46.869650000000007     46.230399999999996     50.035150000000002
H      47.176450000000003     47.963100000000004     45.440250000000006
H      49.017650000000003     48.320199999999993     50.559749999999994
H      49.158950000000004     49.249599999999994     45.763549999999995
H      45.339550000000003     45.807799999999993     48.847849999999994
H      45.351650000000006     46.320199999999993     45.993150000000000
H      50.223650000000006     50.032599999999995     49.884550000000004
H      50.660449999999997     50.192200000000007     47.542749999999998
