5

C      47.896924999999996     47.476999999999997     47.783249999999995
C      47.813735000000001     48.393400000000000     48.718649999999997
H      48.843814999999999     48.981700000000004     48.955050000000000
H      47.156185000000001     49.305599999999998     49.082650000000001
O      48.227004999999998     46.694400000000002     46.917349999999999
