18

C      47.585649999999987     47.408349999999992     48.363100000000003
C      48.456649999999996     48.392550000000000     47.665399999999998
C      48.174149999999997     46.677650000000000     49.433399999999999
C      49.856549999999999     48.083649999999992     47.702500000000008
C      46.150949999999995     47.685249999999996     48.239100000000001
C      47.865849999999995     49.264249999999990     46.694000000000010
C      49.515149999999991     46.472949999999997     49.178800000000003
C      50.438149999999993     46.895550000000000     48.201700000000010
C      45.670449999999988     48.497249999999994     47.126200000000004
C      46.565749999999994     49.486849999999990     46.526699999999998
H      47.526550000000000     46.131850000000000     50.207000000000001
H      50.772549999999995     48.589150000000004     47.179000000000009
H      45.440149999999988     47.002250000000004     48.694700000000005
H      48.580950000000001     49.934449999999998     46.389800000000001
H      50.100749999999991     45.731949999999998     49.994400000000006
H      51.580650000000006     46.672649999999990     48.289300000000004
H      44.419349999999994     48.565849999999998     46.916900000000005
H      46.000249999999994     50.268050000000002     45.792999999999999
