8

C      47.703899999999997     48.796299999999988     48.319649999999982
C      48.165300000000002     47.404699999999998     48.057949999999991
H      48.531700000000001     48.990000000000002     49.023350000000008
H      47.877800000000008     49.192599999999992     47.414049999999989
H      46.771900000000002     49.419999999999995     48.425749999999994
H      48.039000000000001     47.178999999999995     46.976649999999992
H      49.228099999999998     47.254600000000003     48.145049999999998
H      47.719499999999996     46.580000000000005     48.673850000000002
