18

C      48.788349999999987     47.882499999999993     48.482999999999997
C      47.451449999999994     48.376700000000007     48.114100000000008
C      49.980249999999998     48.522700000000000     47.984300000000005
C      47.289649999999995     49.549300000000009     47.329200000000000
C      49.120949999999993     46.760300000000001     49.219300000000004
C      46.389949999999999     47.679600000000001     48.722099999999998
C      49.628249999999994     49.438099999999999     46.948900000000009
C      48.355849999999997     50.104499999999994     46.683999999999997
C      47.951449999999994     46.088500000000003     49.686999999999998
C      46.701349999999998     46.558100000000003     49.473700000000008
H      50.751750000000001     48.711700000000000     48.672899999999998
H      46.391349999999996     49.871299999999998     46.993200000000002
H      50.158649999999994     46.226399999999998     49.422700000000006
H      45.248249999999999     47.997900000000008     48.900400000000005
H      50.091549999999998     50.618900000000004     46.810699999999997
H      48.034249999999993     50.932099999999998     45.973100000000002
H      48.029149999999994     45.067900000000002     49.972200000000001
H      45.892049999999998     46.015300000000003     50.026899999999998
