18

C      47.276699999999991     48.238599999999991     47.627449999999996
C      48.047899999999998     47.306100000000001     48.538649999999990
C      47.331600000000002     47.732600000000005     46.336849999999998
C      48.597099999999990     46.049999999999997     48.123449999999991
C      47.027199999999993     49.698899999999995     47.757449999999992
C      48.450999999999993     47.983599999999996     49.813749999999999
C      47.645299999999999     46.437700000000007     45.948549999999997
C      48.328699999999991     45.522800000000004     46.830349999999996
C      47.491299999999988     50.106700000000004     49.029749999999993
C      47.997699999999995     49.189599999999999     50.062049999999999
H      46.963899999999995     48.542800000000014     45.665049999999994
H      49.256700000000002     45.467700000000008     49.011150000000001
H      46.743299999999998     50.607299999999995     47.194850000000002
H      48.734000000000002     47.135800000000003     50.634550000000004
H      47.499099999999991     46.091200000000001     44.928550000000001
H      48.722500000000004     44.801900000000003     46.106749999999991
H      47.165099999999995     51.198099999999997     49.512450000000001
H      48.236899999999999     49.719100000000012     51.071449999999999
