18

C      47.409944999999993     47.975850000000001     48.238099999999996
C      48.713324999999998     47.330650000000006     48.006399999999999
C      46.178224999999998     47.934550000000002     47.489199999999997
C      48.563135000000003     46.739850000000004     46.668499999999995
C      47.243375000000000     48.930549999999997     49.343599999999995
C      49.776985000000010     48.350350000000006     48.367199999999997
C      46.192284999999998     46.921850000000006     46.613699999999994
C      47.400835000000001     46.236550000000008     46.230900000000005
C      48.434085000000010     49.502549999999999     49.914599999999993
C      49.687224999999998     49.342349999999996     49.252700000000004
H      45.239795000000001     48.482849999999999     47.701300000000003
H      49.590025000000011     46.470849999999999     46.362899999999996
H      46.242225000000005     48.959050000000005     49.529399999999995
H      50.760204999999999     48.484949999999998     48.072500000000005
H      45.284305000000003     46.709950000000006     46.118499999999997
H      47.278295000000000     45.732349999999997     45.229299999999995
H      48.278455000000008     50.238749999999996     50.770700000000005
H      50.478835000000004     50.267650000000003     49.466099999999997
