18

C      48.051649999999988     48.127649999999988     48.660399999999996
C      47.837649999999996     47.076449999999994     47.620899999999992
C      49.359749999999991     48.192950000000010     49.159899999999993
C      48.851749999999996     46.651250000000005     46.811399999999992
C      46.940449999999998     49.157749999999993     49.129000000000005
C      46.442250000000001     46.784949999999995     47.632300000000001
C      50.481849999999994     47.903750000000002     48.358199999999997
C      50.046250000000001     47.376549999999995     47.033900000000003
C      45.635549999999995     48.671149999999997     48.892600000000002
C      45.411549999999991     47.483050000000006     48.099599999999995
H      49.400750000000002     48.892349999999993     50.126599999999996
H      48.623249999999999     46.136949999999999     45.873400000000004
H      47.115049999999997     50.222350000000006     49.500900000000001
H      46.124949999999998     45.777649999999994     47.076200000000000
H      51.571050000000000     48.055849999999992     48.799800000000005
H      50.836349999999996     47.206750000000000     46.286000000000001
H      44.728049999999996     48.991249999999994     49.431799999999996
H      44.428950000000000     47.023749999999993     47.933999999999997
