18

C      48.588899999999995     48.915699999999994     48.308399999999999
C      47.149300000000011     48.287900000000008     48.629800000000003
C      49.066300000000012     48.728200000000001     46.000600000000006
C      46.409400000000005     47.446899999999999     47.822599999999994
C      49.555100000000010     48.977000000000004     47.190299999999993
C      46.753399999999999     48.605000000000004     49.968299999999999
C      47.800200000000004     48.307299999999998     45.665300000000002
C      46.732900000000001     47.749499999999998     46.382900000000006
C      49.011300000000006     49.157100000000000     49.592600000000004
C      47.973300000000009     49.096200000000010     50.528099999999995
H      49.784100000000009     48.887600000000006     45.235600000000005
H      45.457700000000003     46.774500000000003     48.075000000000003
H      50.542299999999997     48.990099999999998     47.161299999999997
H      45.901499999999999     48.364699999999999     50.755799999999994
H      47.823000000000008     48.193700000000007     44.379800000000003
H      45.726799999999997     47.723200000000006     45.795599999999993
H      50.104700000000008     49.225499999999997     49.719899999999996
H      48.305300000000003     49.224400000000003     51.620199999999997
