40

C      48.462599999999995     46.371211999999986     47.996749999999984
C      49.549599999999998     45.725361999999997     48.876750000000001
C      50.175699999999992     50.924371999999998     48.616849999999999
C      50.948300000000003     50.275271999999994     49.745449999999991
C      48.512199999999993     47.704432000000004     47.689149999999998
C      50.559600000000003     46.458902000000002     49.362449999999995
C      49.530999999999992     49.883011999999994     47.955849999999998
C      51.287599999999998     48.863841999999998     49.845849999999999
C      49.317399999999992     48.562391999999996     48.542649999999995
C      50.397400000000005     47.911961999999995     49.350749999999991
C      47.302199999999999     45.622891999999993     47.400549999999996
C      47.503199999999993     44.222741999999997     47.726749999999996
C      48.522700000000000     43.721821999999996     48.572949999999992
C      49.492599999999996     44.411291999999996     49.303049999999999
C      50.234499999999997     52.285351999999996     48.584450000000004
C      51.070999999999998     52.956551999999995     49.448549999999997
C      51.478099999999998     52.582951999999999     50.664050000000003
C      51.531400000000005     51.056121999999995     50.760249999999999
C      46.422499999999999     46.046431999999996     46.373649999999998
C      45.866199999999992     45.123021999999992     45.470649999999992
C      45.981300000000005     43.688071999999998     45.903250000000000
C      46.733999999999995     43.195051999999997     46.934349999999995
C      47.175799999999995     48.170101999999993     47.149649999999994
C      46.342200000000005     47.448171999999992     46.205449999999999
C      44.798699999999997     42.757981999999991     45.480350000000001
H      51.369600000000005     46.019661999999997     49.955950000000001
H      49.015599999999992     50.265471999999995     47.069850000000002
H      52.082499999999996     48.433292000000002     50.131649999999993
H      48.891799999999989     42.701311999999994     48.591149999999999
H      50.198899999999995     44.067211999999998     50.077849999999998
H      49.293300000000002     52.741051999999996     48.025250000000000
H      51.132699999999986     54.014152000000003     49.460749999999990
H      52.356200000000001     53.116251999999996     50.986449999999991
H      51.954999999999998     50.579121999999991     51.737949999999998
H      45.253799999999998     45.486991999999994     44.615549999999999
H      46.843400000000003     41.985847999999997     47.093750000000000
H      46.584000000000003     49.145591999999994     47.492850000000004
H      45.616399999999999     47.557841999999987     45.317750000000004
H      44.709499999999991     42.339061999999991     44.262050000000002
O      43.643799999999999     42.609641999999994     45.749949999999998
