18

C      47.219499999999996     47.870299999999993     48.134599999999992
C      48.613800000000005     48.151100000000000     48.134799999999991
C      46.509100000000004     46.638500000000001     47.796099999999996
C      49.523100000000007     47.061000000000000     48.171199999999999
C      46.471100000000007     48.767499999999998     48.869899999999994
C      49.151199999999996     49.397999999999996     48.014899999999997
C      47.454100000000004     45.582699999999996     47.745300000000000
C      48.836200000000012     45.818599999999996     48.150299999999994
C      46.899800000000006     50.082099999999997     48.795199999999994
C      48.202500000000001     50.426400000000001     48.316399999999994
H      45.639200000000002     46.769100000000002     47.018599999999999
H      50.608899999999998     47.265099999999997     48.083099999999995
H      45.391100000000002     48.717999999999989     48.981400000000001
H      50.262700000000002     49.447000000000003     47.805699999999995
H      47.244199999999999     44.618600000000001     47.222899999999996
H      49.486900000000006     44.984000000000002     47.910199999999996
H      46.309500000000007     50.861799999999995     48.905399999999993
H      48.515400000000007     51.381399999999999     48.135799999999996
