20

C      46.180699999999995     45.796699999999987     45.685199999999995
C      47.547399999999996     48.489499999999992     48.106000000000002
C      48.060600000000008     47.695399999999992     49.119800000000005
C      47.803600000000003     49.963600000000000     47.763799999999996
C      48.827500000000001     48.313299999999998     50.176499999999997
C      46.642300000000006     47.991999999999990     47.050000000000004
C      47.238100000000003     46.500899999999987     49.278900000000000
C      48.779799999999994     50.317599999999985     48.631700000000002
C      49.495599999999996     49.595899999999986     49.862000000000002
C      46.474500000000006     46.623899999999992     46.901599999999995
C      46.701700000000002     45.932999999999993     48.146099999999997
H      46.018100000000004     44.687500000000000     45.684000000000005
H      47.285799999999995     50.468199999999996     47.008800000000001
H      49.130600000000001     47.920699999999997     51.164400000000001
H      46.391700000000000     48.733499999999992     46.271300000000004
H      49.252600000000001     51.312500000000000     48.508000000000003
H      50.572500000000005     49.631399999999999     50.317699999999995
H      46.116100000000003     44.970799999999997     48.367100000000001
H      47.124399999999994     45.983899999999991     50.431000000000004
O      45.427499999999995     46.212199999999996     44.835599999999999
