18

C      48.218199999999996     48.659194999999997     48.775999999999989
C      48.128600000000006     48.694125000000000     47.275199999999998
C      47.035200000000003     48.760054999999994     49.525199999999998
C      46.979900000000001     48.765454999999989     46.445400000000006
C      49.402799999999999     48.235765000000001     49.442700000000002
C      49.369399999999999     48.296495000000007     46.576499999999996
C      45.919600000000003     48.903305000000003     48.723600000000005
C      45.810900000000004     48.745244999999997     47.317800000000005
C      50.437899999999999     47.558184999999995     48.730300000000000
C      50.348900000000000     47.540075000000002     47.276399999999995
H      46.640299999999996     48.724574999999987     50.565399999999997
H      46.826400000000007     49.394324999999995     45.466200000000001
H      49.234399999999994     48.183565000000002     50.517700000000005
H      49.606799999999993     48.253484999999998     45.434600000000003
H      45.105599999999995     48.815924999999993     49.277799999999999
H      44.850800000000007     48.882904999999994     46.887100000000004
H      51.144300000000001     46.605675000000005     49.084999999999994
H      51.149199999999993     47.131095000000002     46.425399999999996
