6

C      47.052399999999992     48.076799999999992     47.592149999999997
C      48.302099999999996     48.327499999999993     48.441550000000007
H      46.768699999999995     48.727600000000002     46.844650000000001
H      47.113599999999991     47.150799999999997     47.191250000000004
H      49.231300000000005     48.261999999999993     48.083050000000000
H      47.636399999999995     48.849200000000003     49.155349999999999
