33

C      48.649850000000001     47.728999999999985     48.873099999999994
C      48.787050000000001     48.291200000000003     47.520800000000008
C      48.874650000000010     44.322699999999998     45.710300000000004
C      48.146450000000009     46.441500000000005     48.832900000000009
C      48.541850000000004     47.490899999999996     46.363300000000010
C      48.410550000000008     44.309600000000003     47.121700000000004
C      48.301949999999998     45.613399999999999     47.615800000000007
C      48.694550000000000     46.208900000000000     46.311100000000010
C      49.260950000000001     48.404100000000000     50.020499999999998
C      49.746650000000010     49.706199999999995     49.921000000000006
C      49.742849999999997     50.593599999999995     48.553200000000004
C      49.419649999999997     49.640200000000007     47.370200000000011
C      47.514050000000005     45.662300000000002     49.906500000000008
C      46.669850000000004     46.256500000000003     50.959600000000009
C      45.290050000000001     46.348900000000000     51.141900000000007
C      48.549050000000001     48.061800000000005     44.818500000000000
C      49.500949999999996     50.230300000000000     46.227100000000007
C      50.443950000000008     51.640100000000004     48.559400000000011
H      48.777450000000009     43.490899999999996     44.847500000000011
H      48.226250000000000     43.494299999999996     47.787100000000009
H      47.074750000000002     44.640600000000006     49.832700000000003
H      46.890250000000002     47.138400000000004     51.555800000000005
H      49.033549999999998     48.184200000000004     51.043300000000016
H      44.654649999999997     46.879400000000004     51.857900000000001
H      44.693450000000006     45.421300000000002     51.362099999999998
H      47.836149999999996     49.111400000000003     44.443500000000000
H      48.112050000000004     47.276200000000003     44.142099999999999
H      50.342450000000007     50.381100000000004     44.424599999999998
H      49.509949999999996     48.158799999999999     44.206900000000005
N      49.089850000000006     45.456800000000001     45.236400000000003
N      49.584650000000003     50.594700000000003     45.076300000000003
O      51.345350000000003     52.509100000000004     48.522000000000006
O      49.916649999999997     50.433099999999996     50.873100000000008
