18

C      48.466749999999990     47.471249999999991     48.169949999999993
C      47.404550000000000     48.375450000000001     48.310550000000006
C      48.352850000000004     45.975650000000002     47.852249999999998
C      46.129549999999995     47.918549999999996     47.626550000000002
C      49.759550000000004     48.053849999999997     48.264550000000000
C      47.569950000000006     49.745149999999995     48.510149999999996
C      46.984549999999999     45.400149999999996     47.901650000000004
C      46.026349999999994     46.579250000000002     47.584050000000005
C      49.889650000000003     49.514749999999992     48.561250000000001
C      48.798149999999993     50.466349999999991     48.589250000000000
H      49.446150000000003     45.658850000000001     48.027650000000001
H      45.070750000000004     48.315349999999995     47.217250000000000
H      50.792749999999998     47.802549999999997     47.916950000000000
H      46.779749999999993     50.562049999999999     48.600850000000001
H      46.840149999999994     44.447249999999997     47.592650000000006
H      45.166449999999998     46.231749999999998     46.932050000000004
H      50.929249999999996     49.607349999999997     48.346149999999994
H      48.906750000000002     51.552750000000003     49.067949999999996
