18

C      48.731649999999988     48.747674999999994     48.348599999999990
C      47.958349999999989     47.499855000000004     47.929900000000004
C      49.993449999999989     49.006074999999996     47.588400000000007
C      48.863749999999989     46.439965000000001     47.807699999999997
C      48.080049999999993     49.676535000000001     49.139899999999997
C      46.562149999999995     47.428215000000002     48.208100000000002
C      50.499850000000002     48.028855000000000     46.772199999999998
C      49.958849999999991     46.735365000000002     46.849999999999994
C      46.671649999999993     49.622465000000005     49.205600000000004
C      45.928750000000001     48.606104999999999     48.515699999999995
H      50.449549999999995     49.925695000000005     47.363200000000006
H      48.494149999999998     45.492135000000005     47.789100000000005
H      48.679249999999989     50.507864999999995     49.501600000000010
H      45.921849999999999     46.599125000000001     48.199799999999996
H      51.181249999999999     48.256825000000006     46.029399999999995
H      50.220049999999993     45.573585000000001     46.531999999999996
H      46.285049999999991     50.248265000000004     49.970600000000005
H      44.818750000000001     48.726134999999999     48.424899999999994
