18

C      48.337249999999990     48.131799999999991     47.265099999999997
C      48.660249999999998     47.328500000000005     48.456299999999999
C      48.976349999999996     49.421599999999998     47.124600000000001
C      49.589849999999998     47.808199999999999     49.494600000000005
C      47.429650000000002     47.540700000000001     46.330000000000005
C      47.950150000000001     46.059899999999999     48.728999999999999
C      49.561950000000003     49.961700000000008     48.345100000000002
C      49.806049999999999     49.121899999999997     49.495100000000008
C      46.780949999999997     46.318200000000004     46.466300000000004
C      46.967149999999997     45.710900000000009     47.765600000000006
H      48.721449999999990     50.197800000000001     46.344500000000004
H      49.759349999999998     47.042699999999996     50.243000000000009
H      47.455150000000003     48.174599999999998     45.492300000000000
H      48.366950000000003     45.407899999999998     49.456600000000009
H      50.047150000000002     50.999499999999998     48.366300000000003
H      50.066850000000002     49.671199999999999     50.507700000000000
H      45.933149999999998     45.965500000000006     45.900900000000007
H      46.035249999999998     45.000500000000002     47.780200000000008
