48

C      48.285399999999989     43.711734499999991     48.592849999999999
C      49.693899999999999     51.207224500000002     45.778449999999992
C      45.908299999999997     45.420314500000003     50.374849999999995
C      48.840599999999995     51.174864500000005     46.873449999999991
C      50.369199999999999     49.184994499999995     46.717749999999995
C      48.115299999999998     45.194824500000003     48.421449999999993
C      47.336099999999995     49.970304500000005     48.949050000000000
C      49.037499999999994     47.644814500000003     48.051850000000002
C      48.275799999999997     50.207724500000005     47.911949999999990
C      49.213700000000003     49.086464499999998     47.589649999999992
C      47.113999999999997     45.972624500000002     50.654449999999997
C      47.525199999999998     48.707274500000004     49.636550000000000
C      47.785299999999999     46.133344500000000     49.423649999999995
C      48.127699999999997     47.642314500000005     49.159949999999995
C      48.533599999999993     45.526654499999999     47.146649999999994
C      48.984799999999993     46.747984499999994     46.924449999999993
C      48.387299999999996     43.036864500000000     47.392550000000000
C      48.737399999999994     44.137964500000002     44.997850000000000
C      48.385699999999986     44.183314500000002     46.426549999999992
C      48.031799999999997     52.356844500000001     47.056349999999995
C      46.839399999999998     52.676244500000003     47.720849999999999
C      46.395499999999998     51.025364500000002     49.631049999999988
C      46.008799999999994     51.890144499999998     48.493849999999995
C      49.932099999999991     52.224744499999993     44.622249999999994
C      50.649699999999996     50.209604500000005     45.781750000000002
H      46.660499999999999     46.387014499999999     52.326949999999997
H      44.638300000000001     43.874884500000000     50.105949999999993
H      45.538199999999996     50.587104500000002     50.208449999999999
H      48.260299999999994     45.463214499999999     43.673050000000003
H      50.673800000000000     48.049194500000006     46.380650000000003
H      45.925999999999995     48.901214500000002     51.191049999999990
H      49.256100000000004     46.957044500000002     45.928550000000001
H      48.782899999999998     43.464524500000003     49.568649999999991
H      48.278899999999993     42.194255500000004     46.848949999999988
H      49.122899999999987     43.011724500000000     44.691350000000000
H      49.611999999999995     44.840524500000001     45.133749999999992
H      48.810500000000005     53.027144499999999     46.633049999999997
H      47.199099999999994     51.669644499999997     50.168049999999994
H      46.670899999999996     53.805744499999996     47.386449999999996
H      50.894900000000007     52.106844500000001     44.122349999999997
H      50.031499999999994     53.245744499999994     45.021349999999998
H      49.151799999999994     52.122244500000001     43.779150000000001
H      51.361699999999999     50.426124500000007     45.050650000000005
N      44.791699999999992     44.996774499999994     50.156449999999992
N      47.057399999999994     48.429564500000005     50.923949999999991
O      47.315999999999995     46.918084499999999     51.765149999999991
O      47.862499999999997     44.671994500000004     43.853449999999995
O      44.879099999999994     52.250844499999999     48.491949999999989
