18

C      48.306549999999987     48.242099999999994     47.305799999999991
C      47.427049999999994     48.112300000000005     48.471699999999991
C      49.599949999999978     48.542300000000012     47.788699999999999
C      47.892550000000000     48.756399999999999     49.683999999999990
C      47.819350000000000     47.731999999999999     46.060299999999991
C      46.316749999999999     47.266500000000008     48.477100000000000
C      50.159049999999993     48.953500000000005     49.011800000000001
C      49.248549999999994     49.106200000000015     50.135999999999989
C      46.481249999999989     47.265200000000007     46.135899999999999
C      45.701049999999995     46.884300000000010     47.314999999999991
H      50.264650000000003     48.239400000000003     46.822199999999988
H      46.765049999999988     48.985500000000016     50.222299999999997
H      48.218249999999998     47.619700000000009     45.019399999999997
H      45.633749999999992     46.841500000000011     49.271899999999995
H      51.297550000000001     49.087800000000001     49.125299999999989
H      49.191249999999997     49.678100000000001     50.997199999999999
H      46.128949999999989     47.162199999999999     45.002800000000001
H      44.702449999999999     46.321899999999999     47.274799999999992
