5

C      47.890100000000004     48.083899999999986     48.311649999999993
H      47.990399999999994     47.068799999999996     48.716049999999996
H      47.129900000000006     48.931200000000004     48.773049999999998
H      48.870099999999994     48.845399999999998     48.406750000000002
H      47.501300000000001     47.922899999999998     47.226950000000002
