6

C      47.575949999999992     48.106349999999992     48.931849999999997
C      48.193350000000009     48.473770000000002     47.638320000000007
H      48.069450000000003     47.377369999999999     49.577779999999997
H      46.619050000000001     48.622630000000001     49.082910000000005
H      49.380949999999999     48.589390000000009     48.059460000000009
H      48.007950000000008     47.983620000000002     46.422220000000003
