21

C      45.333399999999990     48.971324999999993     46.044799999999995
C      48.533099999999990     48.660710000000002     48.957300000000004
C      48.411899999999989     47.433005000000001     48.055999999999997
C      47.778999999999996     49.803554999999996     48.796300000000002
C      47.341899999999995     47.535905000000007     47.165400000000005
C      49.535899999999998     48.514982000000003     49.912599999999998
C      49.170099999999991     46.306504999999994     48.140699999999995
C      46.696299999999994     49.845144999999995     47.776700000000005
C      46.563400000000001     48.693950000000001     46.908199999999994
C      50.549599999999998     47.638204999999992     49.909000000000006
C      50.411799999999999     46.517805000000017     49.004700000000000
H      45.161299999999997     49.851814999999995     45.334000000000003
H      44.527400000000000     49.296484999999997     46.637799999999999
H      45.095100000000002     47.828204999999990     45.699299999999994
H      48.192200000000000     50.647005000000000     49.347099999999998
H      46.879099999999994     46.537605000000013     46.562499999999986
H      49.493499999999997     49.324894999999991     50.665999999999997
H      48.872799999999998     45.290905000000002     47.513300000000001
H      45.842799999999997     50.709094999999998     47.609499999999997
H      51.405000000000001     47.722005000000003     50.595399999999998
H      51.472600000000000     46.084205000000033     48.547799999999995
