53

C      44.440999999999988     48.356049999999996     51.393299999999996
C      43.801800000000000     49.444650000000010     52.105800000000002
C      45.788200000000003     48.632850000000005     51.005700000000004
C      44.370999999999995     50.751449999999991     52.163100000000000
C      44.346099999999993     46.923749999999998     51.603700000000003
C      42.671599999999998     48.975349999999992     52.770299999999992
C      45.694699999999997     51.003349999999998     51.633899999999997
C      46.196500000000000     50.027749999999997     50.838499999999996
C      43.233199999999997     46.408850000000001     52.323099999999997
C      42.560000000000002     47.555450000000008     52.794200000000004
C      51.665099999999995     46.795450000000002     46.865099999999998
C      51.215800000000002     46.682150000000007     48.273200000000003
C      47.193799999999996     50.306150000000002     49.743200000000002
C      46.914299999999997     50.864950000000007     48.380799999999994
C      50.512600000000006     47.674050000000008     49.004499999999993
C      48.565899999999999     49.841650000000001     49.755899999999997
C      49.096199999999996     49.125150000000005     45.909499999999994
C      48.100700000000003     50.146250000000009     46.243600000000001
C      50.107200000000006     48.301349999999999     46.733699999999999
C      48.090900000000005     50.588250000000002     47.635999999999996
C      49.926200000000009     48.609949999999998     48.152299999999997
C      49.028400000000005     49.757549999999995     48.417100000000005
C      52.616600000000005     45.896150000000006     46.297499999999999
C      53.120400000000004     44.967050000000000     47.258899999999997
C      51.947100000000006     45.694150000000008     48.938400000000001
C      49.003799999999998     48.633550000000000     44.595699999999994
C      48.095100000000002     49.159450000000007     43.625100000000003
C      47.027799999999999     50.151150000000001     43.974800000000002
C      47.096100000000007     50.323549999999997     45.353200000000001
C      45.592700000000008     51.457549999999998     48.021699999999996
H      46.638100000000009     48.019149999999996     50.671300000000002
H      42.901700000000005     45.221649999999997     52.366299999999995
H      41.748000000000005     49.521850000000001     52.986900000000006
H      46.382300000000001     52.032250000000005     51.762000000000000
H      43.718099999999993     51.396349999999998     52.799099999999996
H      45.162400000000005     46.235650000000007     51.332499999999996
H      41.722499999999997     47.295550000000006     53.447400000000002
H      44.464200000000005     51.697949999999992     48.498300000000000
H      49.309600000000003     49.664650000000009     50.620800000000003
H      52.496600000000001     45.708150000000003     45.273700000000005
H      51.367800000000003     45.353549999999998     49.817399999999992
H      49.941900000000004     48.161749999999998     44.225799999999992
H      48.293999999999997     48.921950000000010     42.552599999999998
H      46.025599999999997     50.183549999999997     43.291399999999996
H      46.230199999999996     50.971649999999997     45.464399999999998
H      51.417000000000002     47.176050000000004     50.866900000000001
H      54.277500000000003     43.457949999999997     47.109799999999993
H      46.091300000000004     52.542050000000003     47.849900000000005
H      45.092100000000002     51.179650000000009     46.942099999999996
N      51.183599999999998     47.790050000000008     46.174999999999997
N      52.956000000000003     44.949550000000002     48.614999999999995
O      50.577300000000008     47.562550000000002     50.407299999999992
O      53.912000000000006     44.080050000000000     46.561899999999994
