18

C      48.485549999999989     48.756749999999990     48.152139999999989
C      47.509349999999998     47.994249999999994     47.393869999999993
C      47.978049999999996     49.263649999999998     49.410789999999992
C      46.109150000000000     48.236149999999995     47.541650000000004
C      49.928250000000006     48.575450000000004     47.819659999999999
C      47.710049999999995     47.176249999999996     46.225700000000003
C      46.628150000000005     48.783149999999992     49.726610000000008
C      45.526949999999999     48.502449999999996     48.855829999999997
C      50.057850000000002     47.436149999999998     46.992329999999995
C      49.027250000000009     47.001850000000005     46.055359999999993
H      48.603549999999998     49.659649999999999     50.163530000000009
H      45.243150000000000     48.050449999999998     46.858940000000004
H      50.734050000000011     48.999049999999997     48.393010000000004
H      47.439149999999998     47.154749999999993     45.128119999999996
H      46.256850000000000     48.701949999999997     50.871880000000004
H      44.840149999999994     47.810050000000004     49.356369999999998
H      51.159850000000006     47.097949999999997     46.788159999999991
H      49.497850000000000     46.340350000000001     45.200739999999996
