6

C      48.381499999999996     47.632449999999992     47.478799999999993
C      47.775800000000004     48.510650000000012     48.325300000000006
H      48.544899999999998     46.539749999999998     47.864600000000003
H      48.775300000000001     48.002250000000004     46.576000000000001
H      47.588099999999997     49.460250000000002     47.788500000000006
H      47.224699999999999     48.176650000000009     49.423999999999999
