5

C      48.090099999999993     47.806849999999990     48.003599999999985
H      48.444799999999994     47.209750000000000     48.870400000000004
H      47.201400000000000     47.483149999999995     47.446099999999994
H      47.841700000000003     48.790250000000000     48.564499999999995
H      48.798600000000000     47.797349999999994     47.129599999999996
