5

C      47.716699999999989     47.867894999999997     47.998799999999996
H      47.710399999999993     47.137535000000000     47.110399999999998
H      48.704300000000003     48.241945000000001     48.477699999999999
H      47.295699999999997     48.862465000000000     48.120400000000004
H      47.328000000000003     47.312735000000004     48.889600000000002
