18

C      48.499749999999992     48.175549999999994     47.486999999999988
C      47.341249999999995     47.601550000000003     48.075899999999997
C      49.745749999999994     47.496450000000003     47.274799999999992
C      47.263149999999996     46.138849999999998     47.947900000000004
C      48.524349999999991     49.630849999999995     47.378399999999992
C      46.215449999999997     48.329149999999998     48.660899999999998
C      49.624049999999997     46.147250000000000     47.035499999999992
C      48.276049999999998     45.525150000000004     47.168599999999998
C      47.530749999999998     50.294749999999993     48.089699999999993
C      46.376750000000001     49.687349999999995     48.781300000000002
H      50.728850000000001     47.939650000000000     47.335899999999995
H      46.292650000000002     45.940150000000003     48.298999999999992
H      49.242349999999995     50.183349999999997     46.807099999999998
H      45.271149999999999     47.846850000000003     48.654200000000003
H      50.604050000000001     45.389450000000004     46.805299999999995
H      47.897050000000000     44.694150000000000     46.677999999999997
H      47.453649999999996     51.305850000000000     48.189599999999984
H      45.591349999999998     50.322850000000003     49.322000000000003
