18

C      48.019299999999987     48.303010000000000     48.749949999999991
C      47.844500000000004     47.853350000000006     47.392049999999998
C      46.666099999999993     48.536439999999999     49.261449999999996
C      46.658899999999996     48.054749999999999     46.435350000000000
C      49.086199999999998     48.146479999999997     49.549250000000001
C      48.951799999999999     46.978729999999999     47.046750000000003
C      45.590299999999992     48.930800000000005     48.326949999999997
C      45.559499999999993     48.648740000000004     46.843849999999996
C      50.318999999999996     47.691969999999998     49.097549999999998
C      50.177299999999995     47.176749999999998     47.826849999999993
H      45.931699999999999     48.288409999999999     50.137149999999991
H      46.643200000000000     47.984210000000004     45.239350000000002
H      48.817399999999999     48.302459999999996     50.760649999999998
H      48.655600000000000     46.612160000000003     46.160950000000000
H      44.751100000000001     49.387839999999997     48.790149999999997
H      44.686000000000000     48.942830000000001     46.207650000000001
H      51.314000000000000     47.579340000000002     49.681349999999995
H      51.209600000000002     46.904629999999997     47.298649999999995
