18

C      47.932199999999995     48.716249999999995     48.428899999999999
C      48.644800000000011     48.064650000000000     47.294799999999995
C      46.650100000000002     49.223649999999992     48.153300000000002
C      48.441099999999999     48.776849999999996     46.171999999999997
C      48.205400000000004     48.397050000000000     49.600600000000000
C      49.257600000000004     46.784750000000003     47.457599999999999
C      46.315500000000007     49.797049999999999     46.873800000000003
C      47.449599999999997     49.841949999999997     46.027299999999997
C      48.974499999999999     47.292349999999999     49.925199999999990
C      49.746299999999998     46.814450000000001     48.895099999999999
H      45.926600000000001     49.310749999999999     48.960699999999989
H      48.653300000000002     48.501049999999999     45.073200000000000
H      47.735100000000003     49.054450000000003     50.391800000000003
H      49.348500000000008     45.974350000000001     46.641300000000001
H      45.174200000000006     50.025649999999999     46.432500000000005
H      46.985300000000002     49.943249999999999     44.913700000000006
H      49.572899999999997     47.077150000000003     51.086299999999994
H      50.825799999999994     46.403449999999999     49.162599999999998
