18

C      48.084499999999991     47.432199999999995     48.134849999999993
C      47.824100000000001     48.840600000000002     47.712550000000000
C      48.370100000000008     46.842800000000004     49.449850000000012
C      48.118700000000004     49.667600000000000     48.889850000000010
C      48.152500000000003     46.303600000000003     47.091050000000003
C      47.460300000000004     49.224899999999998     46.396850000000001
C      48.447299999999998     47.780100000000012     50.452849999999998
C      48.405300000000011     49.245600000000003     50.182149999999993
C      47.718100000000007     46.703300000000006     45.917149999999999
C      47.365600000000001     48.134700000000002     45.652950000000004
H      48.347700000000003     45.801200000000001     49.608249999999998
H      48.162800000000004     50.683900000000001     48.739750000000001
H      48.491699999999994     45.316099999999999     47.353950000000005
H      47.451999999999998     50.279800000000002     46.159250000000000
H      48.375900000000001     47.352400000000003     51.448250000000002
H      48.801500000000004     49.784500000000001     50.952350000000010
H      47.653800000000004     46.344500000000004     44.872150000000005
H      47.198499999999996     48.373799999999996     44.551749999999998
