22

C      45.911704999999984     50.010499999999993     48.168449999999993
C      49.022504999999988     47.748300000000000     47.907550000000001
C      47.661404999999995     48.142899999999997     48.040149999999997
C      50.001404999999998     48.785200000000003     47.985050000000001
C      47.394204999999992     49.580400000000012     48.034750000000003
C      49.694504999999999     46.317900000000009     47.874749999999999
C      46.642204999999997     47.139800000000008     48.418149999999997
C      49.865904999999991     50.132800000000003     48.080449999999999
C      48.497804999999993     50.490800000000007     47.899650000000001
C      48.533904999999997     45.268500000000003     47.917650000000002
C      47.318504999999995     45.702500000000001     48.520449999999990
H      45.519905000000001     47.384500000000003     48.309249999999999
H      45.129404999999998     50.309700000000007     47.600949999999997
H      45.522905000000002     49.466600000000000     49.112850000000002
H      50.870595000000002     48.316699999999997     48.043349999999997
H      50.727087300000001     51.040800000000004     48.377450000000003
H      50.111905000000000     46.429000000000002     46.887149999999998
H      45.979704999999989     50.810300000000012     48.780750000000005
H      48.346105000000001     51.698200000000000     47.894649999999999
H      50.124604999999995     46.269800000000004     48.829050000000002
H      48.944904999999999     44.301800000000000     48.022149999999996
H      46.875704999999989     44.763000000000005     48.801849999999995
