18

C      48.384749999999990     47.532699999999991     48.664699999999996
C      47.443649999999991     47.946579999999997     47.528000000000006
C      49.187150000000003     48.619390000000003     49.224999999999994
C      47.543949999999995     49.351080000000003     47.195800000000006
C      48.339550000000003     46.279940000000003     49.122699999999995
C      46.709249999999997     47.164850000000001     46.762199999999993
C      49.091149999999999     50.009090000000008     48.861999999999995
C      48.205849999999998     50.428459999999994     47.822999999999993
C      47.594349999999991     45.507410000000000     48.156400000000005
C      46.784549999999996     45.736919999999998     46.956900000000005
H      49.628450000000001     48.361860000000000     50.170199999999994
H      46.891549999999995     49.774700000000003     46.356399999999994
H      48.712449999999990     46.041150000000002     50.066199999999995
H      46.371549999999999     47.619049999999994     45.829800000000006
H      49.368150000000000     50.874829999999996     49.442700000000002
H      47.632249999999999     51.464430000000000     47.574500000000000
H      46.980949999999993     44.535570000000000     48.468999999999994
H      46.384850000000000     44.989500000000000     46.398600000000002
