18

C      47.772899999999993     47.955649999999991     48.654049999999998
C      48.010300000000008     48.470949999999995     47.343950000000000
C      48.815400000000004     48.352550000000001     49.765049999999995
C      49.012299999999989     49.467049999999993     47.214549999999996
C      46.854399999999998     46.911349999999992     49.056450000000005
C      47.164800000000000     47.884949999999996     46.254349999999995
C      49.642600000000009     49.408149999999999     49.589850000000006
C      49.787900000000015     49.865449999999989     48.275050000000000
C      46.209200000000003     46.378149999999998     47.902549999999998
C      46.303699999999999     46.873550000000002     46.556949999999993
H      48.769799999999996     47.652650000000001     50.677349999999997
H      48.785299999999999     49.707949999999990     46.088150000000006
H      47.345199999999998     46.213949999999990     49.715750000000007
H      47.634900000000002     48.125349999999990     45.322650000000003
H      50.231600000000000     49.168050000000001     50.516849999999998
H      50.544699999999999     50.638050000000000     47.952249999999999
H      46.029499999999999     45.361950000000000     48.020450000000004
H      45.455300000000001     46.607749999999989     45.993649999999995
