18

C      47.287449999999993     48.519749999999995     47.233549999999994
C      48.053550000000001     48.399249999999995     48.453849999999989
C      48.023549999999986     49.183949999999996     46.190950000000001
C      49.392949999999999     48.939750000000004     48.511349999999993
C      46.045850000000002     47.747649999999993     47.494050000000001
C      47.802349999999990     47.648849999999996     49.623749999999987
C      49.440950000000001     49.394149999999996     46.135549999999995
C      50.011349999999993     49.625850000000000     47.449950000000001
C      45.840449999999990     46.958249999999992     48.637249999999995
C      46.494649999999993     47.202449999999999     49.894749999999988
H      47.602549999999994     48.926149999999993     45.200850000000003
H      50.036649999999995     48.294049999999999     49.044549999999987
H      45.338549999999998     47.850149999999999     46.749349999999993
H      48.488950000000003     47.272549999999995     50.423050000000003
H      49.724450000000004     49.486249999999998     45.149450000000002
H      51.131950000000003     49.691350000000000     47.249149999999986
H      44.868049999999997     46.308650000000000     48.720649999999992
H      45.958349999999996     46.929450000000003     50.850549999999998
