116

C      46.731999999999992     51.497149999999991     44.734749999999991
C      47.820499999999996     51.447350000000000     45.829350000000005
C      50.862499999999997     50.725050000000010     42.337450000000004
C      47.219399999999993     51.517750000000007     43.399850000000001
C      49.000799999999998     50.643349999999998     45.409250000000000
C      49.528399999999991     51.239649999999997     41.876450000000006
C      48.686999999999998     51.348250000000007     43.009950000000003
C      49.445899999999995     50.638649999999998     44.025149999999996
C      45.321899999999999     51.863349999999997     44.884550000000004
C      45.008899999999997     51.278450000000007     46.060649999999995
C      45.941499999999991     50.874049999999997     47.282250000000005
C      47.364499999999992     51.225450000000009     47.193550000000002
C      44.274099999999990     51.453350000000000     43.728949999999998
C      42.999600000000001     51.137150000000005     43.994950000000003
C      42.980199999999996     50.865750000000006     45.389150000000001
C      45.133899999999997     51.692350000000005     42.575050000000005
C      46.409899999999993     51.718350000000001     42.194550000000007
C      45.485599999999991     50.463050000000010     48.466049999999996
C      46.239999999999995     49.995750000000001     49.608250000000012
C      47.522999999999996     50.517850000000010     49.584150000000008
C      48.143599999999992     51.312750000000008     48.529750000000007
C      50.351199999999992     51.100650000000002     47.956750000000014
C      49.434999999999988     51.951050000000009     48.622550000000004
C      41.713799999999992     51.383049999999997     43.144350000000003
C      40.706299999999999     50.382950000000008     42.637450000000001
C      52.091799999999992     50.637349999999998     41.304649999999995
C      52.794899999999998     49.273250000000004     41.202150000000003
C      51.268000000000001     51.600050000000010     46.801249999999996
C      50.243899999999996     49.746850000000009     48.464950000000002
C      50.979099999999988     45.869750000000010     47.237650000000002
C      51.971399999999988     46.763850000000005     47.938650000000010
C      45.234999999999999     47.793450000000007     51.846249999999998
C      46.237899999999996     48.783250000000010     52.392550000000014
C      49.606299999999990     45.731350000000006     47.545150000000007
C      51.378599999999992     47.345150000000004     49.059550000000002
C      45.724099999999993     47.529350000000008     50.420749999999998
C      47.637599999999992     48.857450000000000     52.219650000000001
C      47.670999999999992     46.536950000000004     49.191050000000004
C      49.520899999999997     47.813350000000000     50.704450000000008
C      49.110500000000002     46.423749999999998     48.789349999999999
C      49.967099999999988     47.333449999999999     49.409850000000006
C      47.170000000000002     47.491550000000004     50.213250000000002
C      48.257599999999996     47.901049999999998     51.168250000000000
C      51.295099999999991     45.447450000000003     45.888149999999996
C      52.651600000000002     45.697249999999997     45.508650000000003
C      53.614300000000000     46.599050000000005     46.127650000000003
C      53.392600000000002     46.994750000000010     47.431049999999999
C      44.003000000000000     47.803849999999997     52.555149999999998
C      43.742499999999993     49.155250000000009     52.926450000000003
C      44.753099999999989     50.001050000000006     53.503950000000003
C      46.080299999999994     49.771749999999997     53.483050000000006
C      49.034999999999997     45.160250000000005     46.325249999999997
C      48.013799999999989     44.036150000000006     46.161450000000002
C      50.019399999999990     44.974550000000008     45.375950000000003
C      52.068199999999990     48.368050000000011     49.926050000000004
C      53.613699999999994     48.469650000000001     49.686050000000009
C      54.148199999999989     47.489649999999997     48.620350000000002
C      48.609099999999998     49.819950000000006     52.723750000000010
C      42.570499999999996     49.846950000000007     52.346750000000000
C      55.196199999999990     46.571650000000005     48.640050000000002
C      51.406399999999991     49.773650000000004     49.779050000000012
C      44.069199999999995     51.127350000000007     54.405050000000003
C      46.724800000000002     45.396450000000002     48.880650000000003
H      49.569800000000001     51.617750000000015     40.923249999999996
H      49.442200000000000     50.381349999999998     46.291050000000013
H      41.674099999999996     50.588949999999997     45.374949999999998
H      44.677999999999997     52.204350000000005     41.675849999999997
H      46.878699999999995     52.160950000000014     41.209350000000001
H      45.600899999999996     49.676150000000007     50.494450000000015
H      48.109299999999990     50.478549999999998     50.572950000000006
H      49.664899999999989     52.974649999999997     48.090450000000004
H      39.836500000000001     51.020949999999999     42.291650000000004
H      40.149699999999996     49.438550000000006     42.812950000000001
H      41.309799999999996     50.089950000000002     41.754850000000005
H      52.466399999999993     48.508350000000007     40.409149999999997
H      52.828699999999998     48.694650000000010     42.048850000000002
H      53.933999999999997     49.200650000000010     41.106150000000000
H      43.641099999999994     50.214250000000007     48.155150000000006
H      51.514099999999999     50.756050000000002     46.199550000000002
H      50.778799999999990     52.281750000000017     46.152250000000009
H      52.168199999999999     51.808549999999997     47.161650000000009
H      50.092199999999991     49.071650000000005     47.706950000000006
H      49.343699999999998     49.831650000000010     49.284850000000006
H      44.892600000000002     47.680250000000001     49.891450000000006
H      54.539800000000000     46.550950000000000     45.479350000000011
H      46.817899999999995     50.395750000000007     53.915750000000003
H      47.425399999999996     43.880750000000006     47.179650000000009
H      46.953999999999994     44.279949999999999     45.651150000000001
H      48.465499999999992     43.025350000000003     45.659450000000007
H      50.216200000000001     44.088549999999998     44.673649999999995
H      52.124200000000002     47.829549999999998     50.921350000000004
H      54.120099999999994     48.297150000000002     50.652250000000009
H      53.857999999999990     49.635649999999998     49.291449999999998
H      53.082999999999998     45.695250000000001     44.635649999999998
H      48.600200000000001     50.913449999999997     52.863650000000007
H      42.101599999999991     49.064250000000001     51.617149999999995
H      44.474599999999995     46.922049999999999     54.055149999999998
H      56.163499999999999     46.864150000000009     49.397350000000003
H      55.046199999999999     45.504750000000001     48.373649999999998
H      50.299099999999996     48.101550000000003     51.207350000000005
H      50.952900000000000     50.125250000000008     50.678950000000000
H      52.371200000000002     50.317549999999997     49.317250000000001
H      44.293199999999999     51.030749999999998     55.590850000000003
H      44.777000000000001     51.912550000000010     54.579850000000008
H      43.047100000000000     51.123850000000004     54.162949999999995
H      46.888700000000000     45.672250000000005     47.807950000000005
H      47.161599999999993     44.460050000000010     49.494550000000004
H      45.747599999999991     45.645150000000001     49.673650000000009
N      50.621200000000002     50.309650000000005     43.564250000000001
N      43.883499999999998     50.765349999999998     46.368350000000007
O      41.557499999999990     52.433850000000007     42.595250000000007
O      52.185199999999995     51.473550000000003     40.460949999999997
O      44.162300000000002     50.404350000000008     48.901049999999998
O      49.346399999999988     49.192149999999998     53.449750000000009
O      42.669899999999998     51.010050000000007     52.017049999999998
O      43.668499999999995     46.852249999999998     53.466650000000001
