9

C      47.295149999999992     48.492649999999990     49.088154999999993
C      48.558150000000005     47.224849999999996     46.988374999999998
C      47.396250000000002     47.679749999999999     47.740214999999999
H      48.071050000000007     48.024149999999999     49.682945000000004
H      46.627249999999997     47.898550000000000     49.752544999999998
H      49.372750000000003     47.912450000000000     47.109285000000000
H      48.579550000000005     46.339250000000000     46.247455000000002
H      47.244549999999997     49.660750000000000     48.795085000000000
H      46.640650000000001     47.320549999999997     47.176625000000001
