6

C      48.083649999999999     47.750849999999993     48.574749999999995
C      47.857550000000003     48.220249999999993     47.299050000000001
H      47.578150000000008     48.128649999999993     49.438049999999997
H      48.640850000000000     46.797049999999999     48.652650000000001
H      47.359150000000000     49.202950000000001     47.161650000000002
H      48.217650000000006     47.361249999999998     46.561950000000003
