18

C      48.488749999999989     48.404299999999992     48.412999999999997
C      47.800049999999999     47.732399999999998     47.359899999999996
C      49.613650000000007     47.835899999999995     49.199299999999994
C      48.392350000000008     46.505200000000002     46.789800000000000
C      47.742350000000002     49.634500000000003     48.638700000000000
C      46.475650000000002     47.986500000000007     46.943699999999993
C      50.401049999999998     47.080200000000005     48.335300000000004
C      49.805650000000000     46.330399999999997     47.242900000000006
C      46.268050000000002     49.657400000000010     48.427899999999994
C      45.533150000000006     48.862400000000008     47.456900000000005
H      50.400750000000002     45.527699999999996     46.888099999999994
H      49.837750000000000     48.217399999999998     50.262400000000000
H      48.168050000000008     46.581500000000005     45.737600000000000
H      47.825950000000006     50.472300000000004     49.433599999999998
H      46.063450000000003     47.595100000000002     45.894199999999998
H      51.445549999999997     46.697800000000001     48.677999999999997
H      45.490150000000000     50.312899999999999     49.141199999999998
H      44.554450000000003     49.001700000000000     46.797399999999996
