18

C      48.687349999999988     48.319649999999989     47.391449999999992
C      47.321449999999999     48.106049999999996     47.938449999999996
C      49.336150000000004     49.578749999999999     47.392649999999996
C      46.429249999999996     49.048950000000005     48.366950000000003
C      49.571849999999998     47.161349999999999     47.470049999999993
C      46.858050000000006     46.887950000000004     48.280949999999997
C      48.526650000000004     50.525649999999999     48.081649999999996
C      47.124150000000000     50.258550000000000     48.562450000000005
C      48.973250000000007     45.952349999999996     47.683549999999997
C      47.692049999999995     45.705550000000002     48.250749999999989
H      50.418250000000000     49.837549999999993     47.240150000000000
H      45.581750000000000     48.613950000000003     49.230950000000000
H      50.394949999999994     47.043049999999994     46.769050000000000
H      45.891549999999995     46.387349999999998     48.786250000000003
H      48.848349999999996     51.487750000000005     48.683749999999996
H      46.685350000000000     51.089650000000006     49.183650000000000
H      49.412850000000006     45.055750000000003     47.267449999999997
H      47.361850000000004     44.512249999999995     48.528349999999996
