18

C      47.539299999999997     48.759749999999990     48.470249999999993
C      48.787600000000005     48.598950000000002     47.810850000000002
C      47.393100000000004     48.641350000000003     49.937049999999999
C      49.868800000000000     47.968449999999997     48.515550000000005
C      46.316400000000009     48.487250000000003     47.687049999999999
C      48.847200000000008     48.606849999999994     46.281750000000002
C      48.726500000000009     48.627650000000003     50.588850000000008
C      49.898299999999999     48.054349999999999     49.937250000000006
C      46.391100000000002     48.159049999999993     46.334649999999996
C      47.622000000000007     48.515549999999998     45.659750000000003
H      46.443400000000004     48.572550000000000     50.365550000000013
H      50.509400000000007     47.238950000000003     47.743949999999998
H      45.398299999999999     48.761049999999997     48.114450000000005
H      49.732400000000005     48.567549999999997     45.756650000000008
H      48.916300000000000     48.155749999999998     51.474050000000005
H      50.601700000000001     47.481549999999999     50.562349999999995
H      45.628500000000003     48.078449999999997     45.625250000000008
H      47.827100000000009     48.630849999999995     44.525949999999995
