18

C      48.275724999999994     48.659849999999992     48.150649999999985
C      47.623095000000006     47.649449999999995     47.340450000000004
C      47.602145000000000     49.644849999999998     49.009249999999994
C      46.312935000000003     47.735450000000007     47.415149999999997
C      49.697605000000003     48.696949999999994     47.775549999999996
C      48.262985000000008     46.531849999999999     46.546650000000000
C      46.169325000000008     49.794750000000001     48.758550000000000
C      45.495875000000005     48.779549999999993     47.923549999999992
C      50.317924999999995     47.752649999999996     46.985050000000001
C      49.563575000000007     46.694049999999997     46.295050000000003
H      47.636315000000003     49.817050000000002     50.070149999999998
H      46.079785000000001     47.081349999999993     46.609049999999996
H      50.714014999999996     49.446050000000007     48.204250000000002
H      47.701215000000005     45.543849999999999     46.327950000000001
H      45.273935000000002     50.456150000000001     49.457250000000002
H      44.463985000000001     48.593349999999994     47.715249999999997
H      51.536014999999999     47.922649999999997     46.900449999999992
H      50.193324999999994     45.842649999999999     45.929850000000002
