18

C      48.108949999999993     47.395004999999998     48.414213999999994
C      48.172649999999997     48.600004999999996     47.496114000000006
C      48.659950000000002     47.686704999999989     49.695613999999992
C      48.253049999999995     49.983525000000000     47.874613999999994
C      47.823850000000000     46.096035000000001     48.049014000000000
C      47.542349999999999     48.118075000000005     46.247613999999999
C      48.967350000000003     49.090434999999999     50.014713999999998
C      48.899549999999998     50.195245000000000     49.151414000000003
C      46.960450000000002     45.874375000000001     47.008213999999995
C      47.173650000000002     46.826665000000006     45.994714000000002
H      48.715150000000001     46.943065000000004     50.613162000000003
H      48.283650000000002     50.476594999999989     46.771113999999997
H      48.031450000000000     45.378045000000000     49.042813999999993
H      47.783949999999997     48.935254999999998     45.558413999999999
H      48.843849999999996     49.321515000000005     51.083585999999997
H      49.494250000000001     51.109854999999996     49.081513999999999
H      46.505749999999999     44.890145000000004     46.655513999999997
H      47.025649999999999     46.608415000000008     44.916414000000003
