18

C      48.341449999999988     48.408549999999991     47.740999999999993
C      47.453350000000000     47.377050000000004     48.383600000000001
C      47.798349999999999     49.162649999999992     46.558399999999999
C      46.175350000000002     46.975950000000005     47.725999999999999
C      49.576250000000002     48.714950000000002     48.276400000000010
C      47.935549999999999     46.962550000000000     49.588200000000001
C      46.623950000000001     48.758650000000003     46.008600000000001
C      45.930450000000000     47.624050000000004     46.515900000000002
C      50.112449999999995     47.945950000000003     49.333900000000000
C      49.280249999999995     47.127650000000003     50.007899999999992
H      44.851050000000001     47.118949999999998     46.091700000000003
H      48.224750000000000     49.824449999999999     45.845100000000002
H      45.536750000000005     46.175550000000001     48.110300000000002
H      50.289550000000006     49.331850000000010     47.754500000000000
H      47.228349999999999     46.217950000000002     50.234200000000001
H      46.287450000000000     49.253750000000004     45.054400000000001
H      51.148949999999999     47.878149999999998     49.708100000000002
H      49.807649999999995     46.543750000000003     50.945599999999999
