18

C      48.319249999999997     48.545306999999980     48.238299999999981
C      47.869950000000003     47.682200000000009     47.198899999999995
C      49.596750000000000     49.234459999999999     48.123099999999994
C      48.948350000000005     46.900599999999983     46.384099999999989
C      47.431449999999998     48.879776999999990     49.296199999999999
C      46.583650000000006     47.220999999999989     47.370799999999988
C      50.446050000000000     48.800869999999989     47.224099999999993
C      50.185249999999996     47.553800000000010     46.472799999999992
C      46.121049999999997     48.422101999999995     49.236499999999992
C      45.516649999999998     47.662200000000013     48.250399999999999
H      50.195749999999990     50.010399999999990     48.768000000000001
H      48.712050000000005     45.989600000000010     45.655599999999993
H      47.737449999999995     49.403669999999991     50.344400000000007
H      46.047449999999998     46.352500000000020     46.756799999999998
H      51.549750000000003     49.226739999999992     46.731799999999993
H      51.044849999999997     47.056200000000018     45.681599999999989
H      45.436049999999994     48.552452000000002     50.156599999999997
H      44.450249999999997     47.276200000000003     48.132199999999997
