18

C      48.603949999999998     48.564449999999987     48.053399999999996
C      48.506250000000009     47.136749999999992     47.585400000000000
C      48.513350000000003     48.942749999999990     49.478999999999992
C      48.397650000000013     46.227149999999995     48.681599999999996
C      48.344650000000001     49.692749999999990     47.343900000000005
C      48.176050000000004     46.890749999999997     46.162200000000006
C      48.231050000000010     47.947350000000000     50.430799999999998
C      48.198850000000007     46.612150000000000     50.011200000000002
C      48.200850000000003     49.240849999999995     46.071000000000005
C      48.005850000000009     47.957849999999993     45.441800000000001
H      47.815550000000002     49.702449999999999     49.881800000000005
H      48.122750000000011     45.385750000000002     48.364200000000004
H      48.154750000000007     50.614249999999998     47.987400000000001
H      47.901350000000008     45.847449999999995     46.044300000000000
H      47.772450000000006     48.112549999999999     51.494099999999996
H      47.527350000000013     47.986049999999992     44.505900000000004
H      47.396050000000002     46.102149999999995     50.589700000000001
H      48.149050000000003     50.160449999999997     45.459400000000002
