18

C      48.204149999999998     48.059699999999992     47.249249999999996
C      48.572989100000001     48.129000000000005     48.636150000000001
C      47.522449999999992     49.110900000000001     46.570549999999997
C      47.568149999999989     49.087100000000007     49.318950000000001
C      48.778496000000004     47.003600000000006     46.421750000000003
C      49.259034999999997     47.169700000000006     49.439549999999997
C      46.798249999999996     50.012500000000003     47.318449999999999
C      46.634949999999989     49.929000000000002     48.720550000000003
C      49.682670000000002     46.281499999999994     47.196050000000000
C      49.832239999999999     46.201999999999998     48.632149999999996
H      47.134149999999991     48.640000000000001     45.592550000000003
H      47.662249999999986     48.951300000000003     50.406949999999995
H      48.883777000000009     46.821700000000007     45.386550000000000
H      49.179145000000005     47.030500000000004     50.613450000000000
H      46.060049999999990     50.872100000000003     47.005650000000003
H      45.814849999999993     50.508400000000009     49.327849999999998
H      50.185150000000007     45.450699999999998     46.565550000000002
H      49.952249999999992     45.127899999999997     48.916550000000001
