18

C      47.628499999999995     48.638049999999993     47.830199999999991
C      48.478300000000004     47.358249999999998     47.685800000000000
C      47.664199999999994     49.476549999999996     48.930399999999999
C      49.448899999999995     47.659550000000003     48.739100000000001
C      46.390000000000001     48.976949999999995     47.106000000000002
C      47.964500000000001     46.287849999999999     46.818500000000000
C      48.928600000000003     49.668249999999993     49.624200000000009
C      49.858199999999997     48.596049999999998     49.667899999999996
C      45.885900000000007     47.794950000000000     46.551800000000000
C      46.506200000000007     46.597249999999995     46.427399999999999
H      46.971199999999996     50.344649999999994     49.092799999999990
H      50.186700000000002     46.996050000000004     48.358399999999996
H      45.795600000000007     49.912249999999993     47.255199999999995
H      47.951400000000007     45.304150000000000     46.813899999999997
H      49.235299999999995     50.695850000000000     50.025199999999991
H      50.830200000000005     48.635550000000002     50.198900000000002
H      45.169799999999995     48.178049999999999     45.815599999999996
H      45.813599999999994     45.867550000000001     45.801099999999998
