18

C      47.208399999999997     48.135499999999993     48.055999999999990
C      48.669600000000003     47.991900000000001     47.781999999999996
C      46.819400000000002     46.809200000000004     48.509299999999996
C      49.533900000000003     46.843000000000004     48.105999999999995
C      46.451300000000003     49.292200000000001     47.779600000000002
C      49.074200000000005     49.080600000000011     47.184699999999999
C      47.715299999999999     45.747199999999999     48.894400000000005
C      49.122900000000001     45.668199999999999     48.696700000000007
C      47.058899999999994     50.526500000000006     47.253099999999996
C      48.457300000000004     50.503300000000003     47.284599999999998
H      45.655599999999993     46.404699999999998     48.482699999999994
H      50.541600000000003     47.440400000000004     48.271900000000002
H      45.458399999999997     49.243000000000002     47.995100000000001
H      49.993399999999994     48.924299999999995     46.851500000000001
H      47.585999999999999     44.545299999999997     49.436599999999999
H      49.898299999999992     44.721600000000002     48.979100000000003
H      46.360699999999994     51.031200000000005     46.563400000000001
H      49.062600000000003     51.454700000000003     47.343800000000002
