18

C      48.701369999999997     48.385049999999993     47.688049999999990
C      47.225960000000001     48.252250000000004     47.598549999999989
C      49.726369999999989     47.441050000000004     47.326250000000002
C      46.791010000000000     47.151949999999999     46.721949999999993
C      49.165210000000002     49.231449999999995     48.730449999999990
C      46.405010000000004     49.064350000000005     48.350449999999995
C      49.215509999999995     46.314850000000007     46.596149999999994
C      47.832489999999993     46.110849999999999     46.638349999999988
C      48.266440000000003     50.132249999999999     49.276349999999994
C      46.834440000000001     50.185649999999995     49.156049999999993
H      50.678629999999998     47.593950000000007     47.706849999999989
H      45.634159999999994     46.847049999999996     46.605649999999997
H      50.288730000000001     49.329950000000011     48.926549999999992
H      45.321370000000002     48.543149999999997     48.430649999999986
H      50.126229999999993     45.790050000000008     46.254949999999994
H      47.403580000000005     45.238349999999997     46.018349999999998
H      48.869140000000002     50.701450000000008     49.981650000000002
H      46.120620000000002     50.761650000000003     49.740749999999991
