21

C      47.983349999999994     47.798849999999987     47.836099999999988
C      47.099250000000005     48.284649999999999     48.826999999999998
C      45.711050000000000     47.866650000000007     48.783900000000003
C      45.655450000000002     46.425950000000000     48.920200000000008
C      46.628450000000001     45.588750000000005     48.380700000000004
C      47.569250000000004     46.403850000000006     47.702799999999996
C      49.380150000000000     48.582850000000008     47.472999999999999
C      49.478449999999995     49.547250000000005     46.378900000000002
C      47.393350000000005     49.660350000000008     49.444000000000003
C      50.363050000000001     50.360050000000001     46.325800000000001
H      44.951450000000001     48.591650000000001     48.284999999999997
H      44.691450000000003     45.703050000000005     48.930300000000003
H      48.148250000000004     45.880849999999995     46.832999999999998
H      46.734850000000002     44.603250000000003     48.444100000000006
H      48.583950000000002     49.846550000000008     45.903599999999997
H      48.401250000000005     49.596850000000003     49.918400000000005
H      46.545450000000002     49.849149999999995     50.096400000000003
H      47.211950000000002     50.689350000000005     48.864000000000004
H      51.308549999999997     50.109650000000002     46.213000000000008
H      50.164850000000001     51.396749999999997     46.343699999999998
O      50.227550000000001     48.326049999999995     48.337100000000007
