18

C      47.335349999999991     47.996304999999992     47.953499999999998
C      48.561149999999998     47.510644999999997     47.327400000000004
C      46.971249999999998     47.586055000000002     49.314000000000007
C      49.304749999999999     46.302084999999998     47.712299999999999
C      46.455849999999998     49.041235000000007     47.589500000000001
C      48.918250000000000     48.193165000000000     46.146900000000002
C      47.641050000000007     46.456755000000001     49.685800000000000
C      48.915049999999994     46.123764999999999     49.045299999999997
C      47.058750000000003     49.961734999999997     46.523900000000005
C      48.267650000000003     49.510775000000002     45.880700000000004
H      46.319350000000000     48.145944999999990     50.121100000000013
H      50.116550000000004     45.838135000000001     47.060900000000004
H      45.883449999999996     49.538744999999999     48.491699999999994
H      49.344950000000011     47.610675000000001     45.358300000000000
H      47.339950000000002     46.012234999999997     50.641700000000000
H      49.497349999999997     45.306604999999998     49.450900000000004
H      46.277349999999998     50.693395000000002     46.628800000000005
H      48.790050000000008     50.505935000000001     45.714200000000005
