52

C      48.193999999999996     48.182299999999998     47.688949999999998
C      47.746600000000001     49.228800000000007     48.571449999999999
C      49.781999999999996     51.983699999999999     45.514750000000006
C      48.655799999999999     48.509299999999996     46.338949999999997
C      47.543900000000001     50.568799999999996     48.278549999999996
C      49.798800000000000     50.600999999999999     45.058149999999998
C      48.812500000000000     52.219400000000007     46.561149999999998
C      48.879999999999995     49.923100000000005     46.038750000000007
C      48.438699999999997     50.990700000000004     47.067549999999997
C      47.839900000000000     46.782899999999998     47.718050000000005
C      47.121200000000002     46.334000000000003     48.950149999999994
C      46.613799999999998     47.252899999999997     49.878950000000003
C      46.713600000000000     48.640400000000000     49.539850000000001
C      48.296500000000009     45.794200000000004     46.784250000000000
C      47.544100000000000     44.548100000000005     46.880049999999997
C      47.039400000000001     44.092900000000000     48.040450000000007
C      46.755699999999997     45.010599999999997     49.058149999999998
C      49.500099999999989     46.272900000000007     45.977249999999998
C      49.302900000000001     47.628299999999996     45.494550000000004
C      50.138700000000000     48.245100000000008     44.415549999999996
C      50.892499999999998     49.643999999999991     44.840649999999997
C      46.713200000000001     51.798400000000001     48.698049999999995
C      45.545899999999996     50.546199999999999     51.185150000000007
C      46.101199999999999     49.640600000000006     50.336749999999995
C      46.078099999999999     46.881699999999995     51.210350000000005
C      45.853000000000002     45.498800000000003     51.473849999999999
C      46.528700000000001     44.497299999999996     50.548950000000005
C      50.605300000000000     52.991000000000000     44.771749999999997
C      50.242499999999993     45.248300000000000     45.427750000000003
H      48.462000000000003     53.229399999999998     46.839550000000003
H      50.770800000000001     47.487499999999997     43.957949999999997
H      49.402799999999999     48.858500000000006     43.962149999999994
H      51.513100000000001     49.563600000000008     45.699849999999998
H      51.494500000000002     49.828199999999995     43.738849999999999
H      47.306800000000003     52.840800000000002     48.648449999999997
H      46.256599999999999     51.538700000000006     49.578649999999996
H      44.486899999999999     50.512600000000006     51.551550000000006
H      46.254700000000000     51.471199999999996     51.448350000000005
H      46.078400000000002     52.206099999999992     47.998649999999998
H      47.427900000000001     43.961200000000005     50.999949999999998
H      45.906700000000001     47.743499999999997     51.708349999999996
H      45.152299999999997     45.143500000000003     52.261150000000001
H      45.539999999999999     43.917200000000008     50.502150000000000
H      46.829700000000003     42.078100000000006     48.470349999999996
H      47.935600000000001     43.809700000000007     44.951449999999994
H      51.137999999999998     53.495199999999997     45.579149999999998
H      49.916699999999999     53.921899999999994     44.803950000000000
H      51.401299999999999     52.491299999999995     44.142349999999993
H      50.039499999999990     44.291200000000003     45.895250000000004
H      51.191599999999994     45.277799999999999     44.830650000000006
O      46.347799999999999     42.889700000000005     48.194950000000006
O      47.292699999999996     43.869200000000006     45.737650000000002
