18

C      48.391049999999993     48.228389999999990     48.094299999999997
C      47.135450000000006     47.857200999999989     48.763999999999996
C      48.769350000000003     47.723461000000000     46.870900000000006
C      46.443150000000003     46.722089999999980     48.250200000000007
C      49.494650000000007     48.823359999999994     48.795299999999997
C      46.514650000000003     48.765639999999991     49.731400000000008
C      47.968950000000007     46.652190000000004     46.301000000000002
C      46.940250000000006     45.932689999999994     47.120699999999999
C      49.013850000000005     49.444469999999995     49.881000000000000
C      47.489649999999997     49.691549999999992     50.137000000000000
H      48.228149999999999     45.996590000000012     45.351600000000005
H      49.934849999999997     47.882165999999998     46.582300000000004
H      50.533150000000006     48.791379999999990     48.559700000000007
H      45.523150000000001     48.689999999999998     50.101500000000001
H      46.374849999999995     45.181690000000003     46.555099999999996
H      45.466849999999994     46.410390000000021     48.921300000000002
H      49.667450000000002     49.925199999999990     50.648399999999995
H      47.103949999999998     50.818309999999997     50.368700000000004
