37

C      46.351999999999990     43.668249999999993     47.073999999999998
C      46.081400000000002     51.321910000000003     47.255700000000004
C      45.374400000000009     50.515799999999999     46.397000000000006
C      49.315200000000004     48.337660000000000     48.888599999999997
C      48.678100000000001     47.410390000000000     48.131700000000009
C      47.278000000000006     51.129949999999994     48.111600000000010
C      46.002899999999997     49.167649999999995     46.243499999999997
C      48.576999999999998     49.443490000000004     49.264300000000006
C      47.459900000000005     47.551990000000004     47.383000000000010
C      47.400000000000006     49.743410000000011     48.277799999999999
C      46.913899999999998     48.889800000000008     47.341999999999999
C      47.997299999999996     52.102550000000001     48.999700000000004
C      50.361100000000008     50.999520000000004     50.309399999999997
C      48.965100000000007     50.476469999999992     50.315500000000000
C      45.671700000000001     44.473749999999995     46.285600000000002
C      46.277200000000008     45.745949999999993     45.908799999999999
C      47.397999999999996     46.602570000000000     46.266900000000007
C      48.044100000000000     51.748800000000003     50.447100000000006
H      45.969499999999996     42.787149999999997     47.638099999999994
H      47.265400000000000     44.117750000000001     47.644599999999997
H      47.355500000000006     53.212850000000003     48.716899999999995
H      44.495199999999997     51.043109999999999     45.716400000000007
H      50.570700000000002     51.938440000000000     50.810099999999991
H      49.059799999999996     52.328959999999995     48.756000000000000
H      50.687799999999996     51.162620000000004     49.253599999999992
H      44.599400000000003     44.497450000000001     46.394800000000004
H      46.063900000000004     45.624150000000000     44.803600000000003
H      48.300899999999999     46.565773000000007     45.680300000000003
H      46.079099999999997     48.553989999999999     45.427300000000002
H      50.139300000000006     46.306887000000003     48.668400000000005
H      46.724800000000002     53.078060000000001     46.654300000000006
H      47.181200000000004     51.107080000000003     50.621499999999997
H      51.504800000000003     48.002409999999998     49.210200000000000
H      48.482200000000006     52.543849999999992     51.196399999999997
O      49.299800000000005     46.209251000000002     48.065599999999989
O      45.847600000000000     52.667950000000005     46.996800000000007
O      50.593199999999996     48.091290000000001     49.598999999999990
