18

C      47.493549999999999     47.973549999999989     48.867799999999988
C      48.498350000000002     47.626550000000002     47.858099999999993
C      46.656049999999993     46.787150000000004     49.045699999999997
C      48.251149999999996     46.721350000000008     46.839100000000002
C      47.502549999999999     49.227750000000007     49.446700000000007
C      49.564549999999997     48.571050000000007     47.628900000000002
C      46.530850000000001     45.584849999999996     48.279499999999999
C      47.394149999999996     45.636850000000003     47.158400000000000
C      48.331750000000000     50.232250000000001     48.965400000000002
C      49.325549999999993     49.843950000000000     48.026100000000000
H      45.899749999999997     47.149449999999995     49.979200000000006
H      48.882750000000001     46.301049999999996     45.982100000000003
H      46.599249999999998     49.453550000000000     50.017899999999997
H      50.405550000000005     48.673650000000002     46.871099999999998
H      45.594449999999995     45.111750000000008     48.345200000000006
H      47.467349999999996     44.713550000000005     46.453999999999994
H      48.304950000000005     51.286449999999995     49.423700000000011
H      50.071149999999989     50.675649999999997     48.017200000000003
