51

C      46.072849999999995     48.632716099999982     44.370049999999992
C      46.905349999999999     49.856254999999983     44.433349999999997
C      47.688949999999991     46.310364999999997     50.782249999999998
C      48.865749999999991     51.157414999999993     50.232450000000007
C      46.298649999999995     47.689364999999988     45.167250000000003
C      48.026550000000000     47.740365000000018     51.241750000000003
C      48.722849999999994     50.036844999999992     51.160350000000001
C      47.411949999999990     46.223165000000002     49.475950000000005
C      47.485549999999989     50.386494999999989     45.646749999999990
C      48.362549999999999     51.055634999999988     48.842049999999993
C      46.771249999999995     47.264365000000012     47.420449999999995
C      48.111049999999992     48.899813999999999     50.519649999999999
C      46.883049999999997     48.229765000000000     46.422649999999997
C      47.174949999999995     47.422564999999999     48.816549999999999
C      47.422749999999994     49.592857000000002     46.819250000000004
C      47.813049999999990     49.858444999999989     48.225150000000006
C      47.573949999999996     48.778246999999986     49.130250000000004
C      45.175150000000002     48.682952499999992     43.245649999999998
C      44.962449999999990     49.753564999999995     42.365949999999998
C      45.919649999999990     50.779184999999991     42.384450000000001
C      46.919950000000000     50.958904999999994     43.460050000000003
C      47.539749999999998     45.174964999999993     51.758949999999999
C      47.422550000000001     45.442965000000001     53.264650000000010
C      47.963949999999997     46.794665000000002     53.619950000000003
C      48.183949999999996     47.965965000000004     52.629049999999999
C      47.987250000000003     51.997584999999994     43.922649999999997
C      49.732249999999993     52.423894999999995     50.426350000000006
C      47.453549999999993     43.903464999999990     50.941749999999992
C      50.953249999999997     52.628014999999998     49.639250000000011
H      46.114049999999992     46.475964999999995     44.925649999999997
H      49.309649999999991     50.235144999999996     52.071649999999998
H      47.328449999999989     51.481194999999992     46.066749999999992
H      48.355449999999990     52.033134999999994     48.479450000000007
H      46.306950000000001     46.371864999999993     47.187649999999998
H      44.465649999999997     47.919065000000003     42.941050000000004
H      44.383949999999999     49.586453999999982     41.274349999999998
H      45.738450000000000     51.703324999999985     41.802050000000001
H      47.177149999999997     44.699964999999999     54.206650000000003
H      47.900949999999995     46.921364999999987     54.725650000000002
H      48.430449999999993     48.978119999999990     52.723950000000009
H      48.301249999999996     51.812214999999995     44.851649999999999
H      49.044349999999994     53.124434999999984     49.987749999999998
H      49.935350000000000     52.546714999999992     51.538350000000001
H      47.040250000000000     45.245365000000007     49.027950000000011
H      46.446749999999994     43.811965000000001     50.486150000000002
H      48.168049999999994     43.851265000000005     50.054949999999998
H      47.603449999999995     42.875565000000016     51.631449999999994
H      51.363649999999993     51.696464999999989     49.526850000000003
H      51.616050000000001     53.068404999999991     50.278050000000000
H      50.618849999999995     52.699294999999992     48.525449999999999
O      48.079049999999995     52.864584999999998     43.119850000000000
