18

C      48.514549999999993     47.386399999999995     48.328899999999990
C      47.941649999999996     48.601300000000002     47.687599999999996
C      49.856650000000002     47.227000000000004     47.979999999999997
C      48.640850000000000     49.650900000000000     46.824399999999990
C      47.624649999999995     46.505900000000004     49.211899999999993
C      46.448250000000002     48.684999999999995     47.693199999999997
C      50.571149999999996     48.198799999999999     47.118199999999995
C      50.028149999999997     49.423300000000005     46.946999999999996
C      46.261550000000000     46.576900000000002     49.009399999999992
C      45.669649999999997     47.855200000000004     48.462299999999992
H      50.814849999999993     46.543900000000001     48.478099999999991
H      48.216850000000001     50.174300000000009     46.064900000000002
H      47.824249999999999     45.713500000000003     49.935099999999998
H      45.960149999999999     49.297599999999996     47.052799999999998
H      51.644750000000002     47.969999999999999     46.881999999999998
H      50.841749999999990     50.286499999999997     46.725299999999997
H      45.836050000000000     45.838900000000002     49.613599999999998
H      44.355249999999998     48.184400000000004     48.711599999999997
