18

C      48.490549999999992     47.871249999999989     48.194099999999992
C      47.108550000000001     48.368350000000007     48.041100000000000
C      49.004950000000001     46.614649999999997     47.589900000000000
C      46.464449999999999     47.154750000000007     47.463499999999996
C      49.390250000000002     48.911850000000001     48.479699999999994
C      46.659150000000004     49.748850000000004     48.376100000000008
C      48.241849999999999     45.394250000000000     47.653700000000001
C      46.963450000000002     45.846950000000007     47.352599999999995
C      49.136150000000001     50.278850000000006     48.730500000000006
C      47.756250000000001     50.651250000000005     48.448899999999995
H      50.081650000000010     46.720849999999999     47.765699999999995
H      45.589950000000002     47.114550000000008     46.881699999999995
H      50.463250000000002     48.704050000000009     48.489599999999996
H      45.536749999999998     49.986550000000008     48.356600000000000
H      48.487050000000004     44.354349999999997     47.318300000000008
H      46.495850000000004     44.877150000000000     47.353700000000003
H      50.053849999999997     50.862850000000009     49.118300000000005
H      47.805050000000001     51.645650000000003     48.904700000000005
