18

C      48.685149999999993     47.971199999999989     48.664549999999991
C      47.308450000000001     48.480199999999996     48.265150000000006
C      48.741450000000007     46.579799999999999     49.340750000000000
C      46.256350000000005     47.837100000000000     48.887550000000005
C      49.743949999999998     48.668799999999990     48.007950000000008
C      46.922950000000000     49.531199999999998     47.309250000000006
C      47.495250000000006     46.151100000000000     49.892650000000003
C      46.207749999999997     46.709400000000002     49.687850000000012
C      49.278050000000000     49.635800000000003     47.099750000000000
C      48.023249999999997     50.108999999999995     46.745850000000004
H      49.696950000000008     46.051400000000001     49.672650000000004
H      45.254049999999999     48.497900000000001     48.994850000000000
H      50.768549999999998     48.746600000000001     48.375349999999997
H      45.896750000000004     49.951799999999992     47.121449999999996
H      47.114650000000005     45.064599999999999     50.087750000000000
H      45.231450000000002     46.134299999999996     50.073450000000008
H      49.905549999999998     50.096400000000003     46.420950000000005
H      47.997050000000002     50.935400000000001     45.912250000000000
