18

C      48.154199999999989     47.657399999999996     47.662399999999991
C      47.775600000000004     48.756599999999999     48.673700000000011
C      49.249800000000000     47.595500000000001     46.788600000000002
C      48.935700000000004     49.614400000000010     48.694600000000008
C      47.190999999999995     46.614600000000003     47.593100000000007
C      46.650300000000009     48.733400000000010     49.430900000000008
C      50.145000000000003     48.707700000000010     46.668599999999998
C      49.972299999999997     49.648000000000003     47.703400000000002
C      46.284100000000002     46.182600000000001     48.616600000000005
C      46.093600000000002     47.415100000000002     49.335300000000004
H      49.152899999999995     46.655900000000003     46.270600000000002
H      48.945000000000000     50.598599999999998     49.156800000000004
H      46.985400000000006     45.656199999999998     46.978500000000011
H      46.026400000000002     49.539999999999999     49.991000000000000
H      51.127199999999995     48.631399999999999     46.009000000000000
H      50.704699999999995     50.539600000000000     47.864300000000000
H      45.684999999999995     45.401400000000002     48.200900000000004
H      44.872800000000005     46.919200000000004     49.814500000000010
