36

C      47.652899999999988     47.804649999999988     47.170249999999996
C      47.515599999999992     48.725049999999996     48.060549999999992
C      46.611899999999991     44.272050000000000     50.336550000000003
C      47.202799999999996     46.490549999999999     47.288849999999996
C      46.881999999999991     48.423649999999995     49.309849999999997
C      46.817700000000002     44.711349999999996     49.089249999999993
C      46.844799999999992     46.696749999999994     51.119649999999993
C      46.995999999999995     46.086349999999996     48.753749999999997
C      46.925899999999999     47.080549999999995     49.698549999999997
C      48.069499999999991     47.978249999999989     45.851450000000000
C      48.641599999999997     49.490549999999999     45.731250000000003
C      47.876599999999996     50.514350000000007     46.390950000000004
C      47.532600000000002     50.135350000000003     47.813350000000000
C      48.128199999999993     47.144250000000000     44.760549999999995
C      46.499200000000002     49.966449999999995     50.035049999999998
C      47.052300000000002     50.820249999999987     48.943650000000005
C      47.746300000000005     45.612849999999995     44.934750000000008
C      46.866699999999994     45.388549999999995     51.359749999999991
C      49.855399999999989     49.541549999999994     45.064250000000001
C      47.604799999999997     51.854749999999996     45.681750000000008
H      46.370999999999995     43.287049999999994     50.594349999999991
H      46.948299999999989     44.007149999999996     48.290149999999997
H      46.845299999999995     44.986950000000000     52.305549999999997
H      47.068599999999989     45.816049999999997     43.957650000000001
H      47.110799999999998     51.860150000000004     48.895349999999993
H      45.423099999999991     49.568149999999989     49.731650000000002
H      46.997399999999999     50.614149999999995     50.804050000000004
H      48.191199999999995     44.820249999999994     44.290949999999995
H      48.463899999999995     47.509949999999996     43.694450000000003
H      46.653899999999993     47.625149999999998     51.862549999999999
H      50.576900000000009     48.694049999999997     45.107050000000001
H      50.500799999999998     50.362549999999999     44.585650000000001
H      46.499699999999990     51.870249999999999     45.676550000000006
H      48.013300000000001     51.663550000000001     44.608550000000008
H      48.072699999999998     52.712950000000006     46.159949999999995
N      47.005600000000001     45.540949999999995     46.321250000000006
