7

C      47.700549999999993     48.222599999999986     47.039149999999992
C      47.926150000000000     48.171499999999995     48.412550000000003
H      48.772550000000003     46.893799999999999     49.674550000000004
H      47.116650000000000     49.106200000000001     46.506149999999998
H      48.114149999999988     47.442599999999999     46.325449999999996
H      47.315750000000001     48.614699999999999     49.361550000000001
O      48.883350000000000     47.127399999999994     48.784749999999995
