18

C      48.331049999999991     48.542809999999989     47.736649999999997
C      47.548849999999995     47.259760000000000     48.058549999999997
C      48.349049999999984     49.698009999999996     48.709850000000003
C      46.704149999999991     47.163390000000000     49.300049999999999
C      48.844450000000002     48.870909999999995     46.440550000000002
C      47.769149999999996     46.255609999999997     47.061750000000004
C      47.919049999999991     49.319809999999997     49.933549999999997
C      47.154449999999997     48.119209999999995     50.249049999999997
C      49.155250000000002     47.778410000000001     45.618350000000007
C      48.485349999999990     46.603090000000002     45.988950000000003
H      48.678249999999991     50.788209999999999     48.393249999999995
H      46.302749999999996     46.083259999999996     49.507149999999996
H      49.256549999999997     49.862910000000007     46.015249999999995
H      47.337449999999997     45.211790000000001     47.360450000000000
H      48.261349999999993     49.881809999999994     50.835849999999994
H      46.674549999999996     48.076509999999999     51.229349999999997
H      49.697250000000004     47.697299999999998     44.770650000000003
H      48.617949999999993     45.752569999999999     45.361750000000001
