39

C      48.230499999999992     47.607649999999978     48.061999999999991
C      47.671500000000002     48.969149999999999     47.871899999999997
C      44.082699999999996     46.529150000000001     46.385099999999994
C      47.318599999999996     46.495350000000002     47.638500000000008
C      46.369700000000002     48.953450000000004     47.365099999999998
C      44.998500000000000     45.706750000000000     47.000100000000003
C      45.919699999999999     46.758349999999993     47.261099999999999
C      45.445999999999998     48.127849999999995     47.042800000000000
C      49.646300000000004     47.359750000000005     48.341300000000004
C      50.565300000000001     48.459149999999994     48.765799999999999
C      49.893999999999998     49.707549999999998     48.466099999999997
C      48.665799999999997     50.026349999999994     47.959000000000003
C      49.742100000000001     45.928650000000005     48.119000000000000
C      51.126300000000008     45.761949999999999     48.578900000000004
C      51.923499999999997     46.783649999999994     49.218000000000004
C      51.783200000000001     48.177350000000004     49.418800000000005
C      48.994599999999998     44.871549999999999     47.743200000000002
C      47.651100000000000     45.090449999999990     47.770899999999997
C      46.510700000000000     44.087049999999991     47.956699999999998
C      45.079799999999999     44.112049999999996     47.291499999999999
C      46.068700000000000     50.521150000000006     47.798000000000002
C      47.051800000000000     51.737849999999995     47.735299999999995
C      48.240600000000008     51.474949999999993     48.122600000000006
C      44.899899999999995     51.200549999999993     47.852500000000006
H      52.669999999999995     48.854649999999992     49.865499999999997
H      43.281700000000001     46.052250000000001     46.134500000000003
H      50.742399999999996     50.552350000000004     48.593800000000002
H      51.370799999999996     44.677250000000001     48.415400000000005
H      52.718299999999999     46.128550000000004     49.461900000000000
H      49.659700000000008     43.939549999999997     47.997699999999995
H      46.905499999999996     43.239549999999994     47.259699999999995
H      46.543500000000002     43.906449999999992     49.015500000000003
H      44.564699999999995     44.106150000000000     48.259600000000006
H      45.098700000000001     43.500850000000000     46.327100000000002
H      46.575699999999998     52.760450000000006     47.944299999999998
H      48.956699999999998     52.230549999999994     48.309700000000007
H      43.951500000000003     50.750249999999994     47.304800000000000
H      44.728099999999998     52.266649999999998     47.964799999999997
N      44.298700000000004     47.884850000000000     46.318500000000000
