37

C      44.047919999999991     47.809349999999995     48.657749999999993
C      51.742300000000000     47.238550000000004     47.988650000000000
C      44.448819999999998     50.049650000000000     48.568449999999991
C      51.456999999999994     48.585850000000001     47.765149999999998
C      50.614899999999992     46.509950000000003     47.493549999999992
C      45.455329999999989     47.505650000000003     48.428850000000004
C      49.412700000000001     50.265850000000007     47.193449999999991
C      46.942409999999995     51.148150000000008     47.824549999999995
C      48.205900000000000     47.374150000000000     47.522849999999998
C      50.125399999999999     48.977850000000011     47.285750000000000
C      49.639799999999994     47.576450000000001     47.288450000000005
C      45.841970000000003     50.057950000000012     48.286849999999994
C      48.009670000000000     50.130750000000006     47.372250000000001
C      46.302219999999991     48.761650000000003     48.042650000000002
C      47.664109999999994     48.697250000000004     47.484949999999991
C      46.171459999999996     46.275650000000006     48.237649999999995
C      47.551999999999992     46.120750000000001     47.905549999999998
C      48.502999999999986     44.925550000000001     47.905949999999997
C      49.844200000000001     45.173050000000003     47.377149999999993
C      53.060699999999997     46.487950000000005     48.395249999999997
C      43.069999999999993     46.965250000000005     48.890349999999991
H      53.452699999999993     46.238250000000001     47.418950000000002
H      52.101999999999990     49.340449999999997     48.085950000000004
H      46.699609999999993     51.834250000000004     46.937649999999998
H      47.354849999999985     51.699549999999995     48.798150000000000
H      46.158429999999996     45.196150000000003     48.943049999999992
H      47.919429999999991     44.025250000000000     47.703049999999998
H      50.417400000000001     44.271650000000001     46.927649999999993
H      44.676559999999995     51.917250000000003     48.057650000000002
H      49.256799999999998     51.974750000000000     46.568750000000001
H      53.820099999999996     47.136450000000004     48.684949999999994
H      52.790499999999994     45.443550000000002     48.872049999999994
H      42.974019999999996     45.925750000000001     49.431249999999999
H      42.179900000000004     47.467750000000002     48.833250000000000
N      43.614419999999996     49.158350000000006     48.922249999999998
O      43.961410000000001     51.378750000000004     48.368149999999993
O      50.076499999999996     51.363149999999997     46.699049999999993
