18

C      47.716099999999997     47.497749999999996     47.915199999999999
C      48.086800000000004     48.902050000000003     48.367200000000004
C      46.527800000000006     47.282049999999998     47.094900000000003
C      46.798499999999997     49.737649999999988     48.362900000000003
C      48.817100000000003     46.461050000000000     47.806699999999999
C      49.317000000000000     49.218149999999994     48.655899999999995
C      45.620600000000003     48.331649999999996     46.902400000000007
C      45.750300000000003     49.646950000000004     47.435399999999994
C      50.023900000000005     46.919950000000000     48.345800000000004
C      50.273199999999996     48.137649999999994     48.980300000000007
H      46.588400000000000     46.211050000000000     46.993500000000004
H      46.429899999999996     50.625550000000004     48.989300000000007
H      48.655999999999999     45.374449999999996     47.856000000000002
H      49.560499999999998     50.400949999999995     48.958800000000004
H      44.651699999999998     47.889550000000000     46.512099999999997
H      44.875499999999995     50.323349999999991     47.216600000000007
H      50.898400000000002     46.158450000000002     48.373899999999999
H      51.348300000000002     48.477649999999997     49.487900000000003
