6

C      48.332149999999999     47.760899999999999     48.279799999999994
C      47.521749999999997     48.396500000000003     47.412899999999993
H      49.146950000000004     48.281000000000006     48.914699999999996
H      48.555250000000001     46.656300000000002     48.089900000000000
H      47.270650000000003     49.343699999999998     47.847499999999997
H      46.853049999999996     47.605300000000000     47.085300000000004
