5

C      48.144399999999990     47.896749999999990     47.907099999999993
H      47.461100000000002     47.312549999999987     48.611400000000003
H      48.990300000000005     47.297950000000000     47.736400000000003
H      48.497600000000006     48.702050000000000     48.347999999999999
H      47.009699999999995     48.273849999999996     47.388599999999997
