17

C      48.895699999999998     48.423964999999988     47.567999999999998
C      48.008800000000001     47.338864999999998     47.683099999999996
C      46.580200000000005     47.695264999999992     47.383499999999998
C      45.964000000000006     48.940116200000006     47.482399999999998
C      47.080500000000001     49.862149000000002     47.384500000000003
C      48.436500000000002     49.822486000000005     47.284700000000001
C      48.339600000000004     45.834064999999995     47.798299999999998
C      50.374600000000001     48.195864999999998     47.852599999999995
H      50.520700000000005     47.065664999999996     47.660200000000003
H      45.921300000000002     46.620864999999995     47.468800000000002
H      44.910700000000006     49.203183000000003     47.222799999999992
H      49.361000000000004     50.472345000000004     47.030900000000003
H      47.567800000000005     45.652765000000002     48.679999999999993
H      51.089299999999994     48.845365000000001     47.426699999999997
H      50.660399999999996     48.166664999999995     48.969099999999997
H      46.641000000000005     50.763435000000001     47.220199999999991
O      49.358400000000003     45.236564999999999     47.623399999999990
