43

C      47.866619999999990     48.151799999999994     48.249349999999993
C      46.595628999999995     48.136699999999998     47.505449999999996
C      49.790599999999998     46.861100000000000     43.910049999999998
C      49.036180000000002     47.718400000000003     47.571449999999999
C      46.852838999999996     47.950400000000002     46.081050000000005
C      49.975099999999998     46.634500000000003     45.341449999999995
C      48.560069999999996     47.676500000000004     43.854649999999992
C      49.135760000000005     47.375800000000005     46.108549999999994
C      47.977649999999997     47.607700000000001     45.251449999999991
C      47.899519999999995     48.245799999999996     49.721149999999994
C      46.782305999999998     48.141100000000002     50.428650000000005
C      45.502779999999994     48.045099999999998     49.589149999999989
C      45.504679999999993     48.234800000000000     48.254350000000002
C      49.245770000000007     48.131800000000005     50.347349999999992
C      49.210200000000000     47.719400000000000     51.698650000000001
C      47.979769999999988     47.487100000000005     52.490349999999992
C      46.797021999999998     47.699700000000000     51.774549999999991
C      50.464839999999995     47.586400000000005     48.084450000000004
C      50.527549999999991     48.270199999999996     49.591049999999996
C      44.495680000000007     48.918900000000001     46.252849999999995
C      45.457380000000001     48.339300000000001     45.389849999999996
C      44.054279999999999     48.322099999999999     47.566050000000004
C      45.670180000000009     47.426700000000004     52.777849999999987
C      51.660820000000001     48.540200000000006     50.314250000000001
C      48.284689999999998     48.364899999999999     42.511949999999999
H      50.831859999999999     46.255400000000002     45.802449999999993
H      50.461739999999999     46.679700000000004     43.149549999999991
H      44.502879999999990     47.936700000000002     50.164749999999998
H      50.003219999999999     47.662300000000002     52.430549999999997
H      50.874319999999997     46.476900000000008     48.074950000000001
H      50.995719999999999     48.302900000000001     47.106849999999994
H      43.675080000000008     49.744599999999998     45.966949999999997
H      45.143979999999999     48.319099999999999     44.373249999999999
H      43.307580000000002     48.914700000000003     47.942849999999993
H      43.733879999999999     47.408600000000000     47.335750000000004
H      47.494709999999998     48.137200000000000     54.296149999999997
H      51.461230000000000     49.029100000000007     51.261449999999996
H      52.692419999999998     48.732800000000005     49.860849999999999
H      49.438100000000006     48.586700000000000     42.505849999999995
H      47.469049999999996     48.975200000000008     42.707549999999998
H      47.537779999999998     47.835900000000002     41.703850000000003
O      44.709380000000003     47.280800000000006     53.499649999999988
O      48.019570000000002     47.555200000000006     53.888949999999994
