18

C      47.385749999999987     48.074849999999998     48.150849999999991
C      48.886350000000000     47.767849999999996     48.300350000000002
C      47.144050000000000     49.430250000000001     47.670949999999998
C      49.781549999999989     48.764049999999997     48.579349999999998
C      46.200649999999989     47.375749999999996     48.271749999999990
C      49.017149999999994     46.251249999999999     48.636850000000003
C      48.148249999999997     50.408449999999988     47.913949999999993
C      49.630749999999999     50.134050000000002     48.181549999999994
C      46.614749999999994     45.958550000000002     48.643549999999998
C      47.970449999999992     45.419250000000005     48.631949999999996
H      46.409349999999996     49.838850000000008     47.029350000000001
H      50.804150000000000     48.897850000000005     48.970649999999999
H      45.195850000000000     47.684849999999997     47.841549999999998
H      50.045349999999992     45.872349999999997     48.674249999999994
H      47.983950000000000     51.572749999999999     47.780949999999997
H      50.192949999999989     51.261750000000006     48.287349999999996
H      45.879449999999999     45.130150000000000     48.653249999999993
H      47.909549999999989     44.427250000000001     48.776350000000001
