19

C      47.192099999999989     48.520999999999987     47.490471349999993
C      48.546899999999994     48.589699999999993     47.119171349999995
C      46.440199999999990     47.310400000000001     47.275071349999997
C      48.910100000000000     47.662499999999994     46.118071350000001
C      46.696699999999993     49.629199999999997     48.480071349999996
C      49.484799999999993     49.531800000000004     47.612671349999992
C      47.129599999999996     46.223500000000001     46.494071350000006
C      48.320999999999998     46.309200000000004     45.918871349999996
C      47.759000000000000     50.400499999999994     49.201171350000003
C      49.073399999999992     50.312899999999999     48.671471349999997
H      47.246799999999993     50.647099999999995     50.224828649999999
H      45.328299999999999     47.257400000000004     47.164171349999997
H      49.958900000000000     47.817300000000003     45.775171350000001
H      45.823599999999999     49.150300000000001     49.134871350000004
H      50.671700000000001     49.444299999999998     47.152871350000005
H      46.629999999999995     45.210499999999996     46.181571350000006
H      49.098599999999990     45.429699999999997     45.848271349999997
H      46.198599999999999     50.418999999999997     48.199471350000003
H      49.989899999999992     50.789500000000004     49.204871349999998
