48

C      48.790649999999992     48.395799999999994     49.138249999999985
C      49.534949999999995     49.632399999999997     48.950350000000000
C      45.302849999999992     51.376899999999999     50.676049999999989
C      47.826449999999994     48.452000000000005     50.168749999999989
C      48.928749999999994     50.814399999999999     49.506850000000000
C      45.580749999999995     49.938899999999997     50.736449999999991
C      46.705349999999996     52.059999999999995     50.370449999999991
C      46.962850000000003     49.613900000000008     50.559349999999995
C      47.586650000000006     50.826100000000004     50.160250000000005
C      49.572749999999999     47.290399999999998     48.680749999999989
C      50.822350000000000     47.265400000000007     47.813049999999990
C      50.940950000000001     48.497999999999998     47.135549999999995
C      50.437550000000002     49.752500000000005     47.762749999999997
C      48.936149999999998     46.095599999999997     49.180749999999989
C      49.575850000000003     44.771000000000001     48.668749999999989
C      50.638750000000002     44.818800000000003     47.599649999999997
C      51.037149999999997     46.036400000000000     47.061449999999994
C      47.271050000000002     47.218300000000006     50.599750000000000
C      47.804050000000004     46.012200000000000     49.939749999999989
C      49.293549999999996     52.165700000000008     49.273449999999997
C      50.023949999999999     52.135899999999999     48.133749999999992
C      50.704750000000004     51.078700000000005     47.403250000000000
C      51.313749999999999     48.633599999999994     45.848549999999989
C      51.574249999999992     49.117899999999999     44.582949999999997
C      51.846350000000001     46.190300000000001     45.761749999999992
C      51.196050000000000     43.479400000000005     47.238050000000001
C      44.136250000000004     51.989399999999996     50.709549999999993
C      46.150449999999992     47.131000000000007     51.494749999999996
H      44.668650000000000     49.267800000000001     50.558749999999989
H      47.129049999999992     52.784200000000006     51.376649999999998
H      47.409250000000000     45.046500000000002     50.165250000000000
H      48.821150000000003     53.126500000000000     49.748549999999994
H      50.220249999999993     53.427500000000002     47.477849999999989
H      46.837750000000000     52.963900000000002     49.611649999999997
H      50.943449999999999     51.503900000000009     46.374749999999992
H      52.072749999999999     45.133000000000003     45.422349999999994
H      51.716049999999996     48.338900000000002     43.829849999999993
H      51.494249999999994     50.160299999999999     44.549849999999992
H      52.913150000000002     46.460200000000007     45.843849999999989
H      51.316249999999997     46.909799999999997     45.332149999999999
H      51.212949999999992     42.572499999999998     48.004349999999988
H      44.175650000000005     53.110999999999997     50.719749999999991
H      43.086849999999998     51.545400000000008     50.741849999999999
H      46.345749999999995     46.091400000000000     51.923049999999989
H      45.338750000000005     47.227300000000007     50.835049999999995
H      45.864949999999993     48.506999999999998     52.170150000000007
O      51.230949999999993     43.202300000000001     46.074050000000000
O      48.594049999999996     44.091100000000004     48.867349999999988
