18

C      47.563999999999993     47.511149999999994     48.210949999999997
C      48.736200000000004     48.039150000000006     47.619550000000004
C      46.606000000000002     46.670050000000003     47.569750000000006
C      49.464500000000008     47.030550000000005     46.794750000000001
C      46.872599999999998     48.110349999999997     49.328650000000003
C      49.287699999999994     49.081249999999997     48.287350000000004
C      47.271900000000002     46.038650000000004     46.557250000000003
C      48.675199999999997     46.161249999999995     46.146650000000001
C      47.497399999999999     49.247550000000004     49.951550000000005
C      48.789200000000001     49.613349999999997     49.530350000000006
H      45.514000000000003     46.560850000000002     48.065050000000006
H      50.485999999999997     47.487150000000000     46.633650000000010
H      45.821399999999997     47.594049999999996     49.736750000000008
H      50.094900000000003     49.741950000000003     47.870150000000002
H      46.433500000000002     45.450350000000000     45.835150000000006
H      48.990500000000004     46.004750000000001     45.147150000000003
H      47.112899999999996     49.710049999999995     50.852849999999997
H      49.270800000000001     50.549650000000000     49.951650000000008
