18

C      47.577399999999997     47.798349999999992     47.672499999999992
C      48.674800000000005     48.505750000000006     48.295200000000008
C      46.248800000000003     47.844650000000001     48.077500000000001
C      48.426199999999994     49.530650000000009     49.287400000000005
C      47.731599999999986     46.766050000000000     46.684100000000001
C      49.875600000000006     47.868049999999997     47.890000000000001
C      46.225300000000004     48.959750000000000     49.167999999999999
C      47.326999999999998     49.395550000000000     50.012100000000004
C      48.899099999999990     46.254850000000005     46.104799999999997
C      49.970099999999988     46.780149999999999     47.004300000000001
H      45.312500000000000     47.229349999999997     47.843499999999992
H      49.249799999999993     50.046750000000003     49.976200000000006
H      46.957800000000006     46.830249999999999     45.907299999999999
H      50.644800000000004     48.478549999999998     48.617199999999997
H      45.148600000000002     48.782849999999996     49.376700000000000
H      47.075999999999993     49.963849999999994     50.970900000000000
H      48.731200000000001     45.953249999999997     45.029100000000000
H      50.851399999999998     46.187049999999999     46.640299999999996
