18

C      47.810499999999998     47.246999999999993     47.738999999999990
C      48.276799999999994     48.028399999999998     48.865800000000000
C      46.434600000000003     46.915300000000002     47.383699999999997
C      47.150499999999994     48.747399999999999     49.408499999999997
C      48.745599999999996     47.122599999999998     46.644100000000002
C      49.739300000000000     48.424400000000006     48.865400000000001
C      45.370800000000003     47.059300000000000     48.246599999999994
C      45.880899999999997     48.036500000000004     49.271200000000000
C      50.069000000000003     47.624899999999997     46.686000000000000
C      50.665199999999999     48.090199999999996     47.880400000000002
H      46.085300000000004     46.255600000000001     46.600999999999999
H      47.285700000000006     49.744399999999999     50.281199999999998
H      48.557999999999993     46.438599999999994     45.867899999999999
H      50.494000000000000     48.497799999999998     49.683599999999991
H      44.303600000000003     47.146799999999999     48.039099999999998
H      45.211399999999998     48.541300000000007     49.910999999999994
H      50.408199999999994     47.034099999999995     45.718800000000002
H      51.696399999999997     48.402299999999997     47.781599999999990
