50

C      48.902149999999992     47.705140000000000     47.882599999999982
C      48.714149999999997     46.413550000000001     47.377600000000001
C      49.534050000000001     48.139420000000001     49.114399999999989
C      49.317050000000002     45.238450000000014     48.122399999999999
C      49.704850000000000     47.080189000000004     51.339500000000001
C      49.728149999999992     46.902259000000001     49.932899999999989
C      50.009149999999998     45.510450000000006     49.412799999999990
C      48.457749999999997     48.889910000000000     47.042000000000002
C      48.177349999999997     48.624589999999998     45.699799999999996
C      47.753650000000000     47.234223999999998     45.355699999999999
C      48.052849999999999     46.183450000000008     46.135599999999997
C      48.500949999999996     50.261610000000005     47.569599999999994
C      47.903849999999998     51.365539999999996     46.807499999999990
C      47.353749999999998     51.104360000000000     45.468999999999994
C      47.504150000000003     49.797730000000001     45.073399999999992
C      48.790450000000000     50.486300000000000     48.977499999999992
C      49.358749999999993     49.354150000000004     49.830299999999994
C      50.129249999999999     49.556910000000002     51.096800000000002
C      49.800750000000001     48.410989999999998     51.863500000000002
C      49.388349999999996     43.987450000000010     47.610699999999994
C      50.340749999999993     43.233049999999992     48.372000000000000
C      47.536349999999999     44.655949999999990     45.267899999999997
C      46.716850000000001     47.336801000000008     44.036999999999992
C      45.376550000000002     47.224327000000002     44.802199999999999
C      46.810849999999995     48.974130000000002     43.881799999999998
C      47.941049999999997     52.610820000000004     47.485199999999992
C      48.512349999999998     52.798830000000009     48.798000000000002
C      48.630449999999996     51.650480000000002     49.646099999999990
C      50.976149999999997     43.491750000000010     49.506500000000003
H      49.638849999999998     46.147750000000016     51.984400000000008
H      49.694449999999996     48.218819999999994     52.983600000000010
H      50.334949999999999     50.368139999999997     51.799400000000006
H      46.751150000000003     44.923349999999999     44.609200000000001
H      49.142949999999999     43.660950000000028     46.633799999999994
H      51.511350000000000     42.658050000000003     50.094000000000008
H      48.592250000000000     44.111850000000004     45.322299999999998
H      45.316549999999999     46.159850000000020     45.298400000000001
H      44.488650000000000     47.429721999999998     44.150899999999993
H      46.791350000000001     46.532464000000004     43.225399999999993
H      45.519749999999995     48.036739999999995     45.627299999999991
H      46.111150000000002     49.505409999999998     43.212800000000001
H      44.894950000000001     52.140969999999996     45.946699999999993
H      47.430349999999997     49.079720000000009     43.016399999999990
H      48.078949999999999     53.528739999999999     46.868299999999991
H      49.075250000000004     52.061779999999999     50.692799999999991
H      46.846550000000001     44.045250000000010     45.987600000000000
H      50.457450000000001     42.098750000000010     48.207799999999992
H      48.877449999999996     53.901249999999990     49.112299999999991
N      50.826349999999998     44.704550000000026     50.007399999999990
S      46.032449999999997     52.150649999999999     45.016999999999996
