18

C      48.345899999999993     46.772649999999985     47.455549999999995
C      49.013599999999997     47.526049999999991     48.556049999999999
C      46.991500000000002     46.627249999999997     47.733350000000002
C      48.608300000000000     47.311349999999997     49.968450000000004
C      48.456100000000006     47.030349999999991     46.011350000000000
C      49.890799999999999     48.502350000000000     48.054450000000003
C      46.599299999999999     46.514749999999999     49.064250000000001
C      47.462600000000002     46.611550000000001     50.211950000000002
C      49.358199999999997     48.095750000000002     45.865450000000003
C      49.935699999999997     48.994049999999994     46.791950000000000
H      46.488199999999999     46.551549999999999     46.757550000000002
H      49.228900000000003     46.939950000000003     50.897849999999998
H      47.899299999999997     46.647449999999999     45.190449999999998
H      50.406700000000001     49.173949999999998     48.779250000000005
H      45.472600000000000     46.558550000000004     49.012950000000004
H      47.092900000000000     46.201850000000000     51.118449999999996
H      49.706400000000002     48.524949999999997     44.881550000000004
H      50.527400000000000     49.798150000000000     46.491849999999999
