6

C      47.728600000000000     47.948949999999996     47.178899999999999
H      46.588300000000004     47.880250000000004     46.989800000000002
H      47.764499999999998     49.010450000000006     46.939999999999998
H      48.104500000000002     47.154949999999999     46.339700000000008
H      49.411699999999996     46.989549999999994     49.660299999999992
S      48.407200000000003     47.538849999999996     48.971800000000002
