43

C      49.590849999999996     46.694350000000000     47.883399999999995
C      48.618850000000009     45.734650000000002     47.451100000000004
C      47.401750000000007     49.720650000000006     44.795600000000000
C      46.556150000000002     48.682450000000003     44.388800000000003
C      49.492750000000001     47.988050000000001     47.508500000000005
C      48.567149999999998     49.528649999999999     45.708700000000000
C      47.158150000000006     47.350049999999996     44.495899999999999
C      48.720050000000001     48.232550000000003     46.345900000000000
C      47.967750000000009     47.106250000000003     45.756000000000000
C      49.911850000000001     46.602550000000008     49.357599999999998
C      48.996049999999997     45.861249999999998     50.294300000000000
C      47.992450000000005     44.967349999999996     49.657699999999998
C      48.132249999999999     44.713750000000005     48.363099999999996
C      46.944150000000008     51.167649999999995     44.703600000000002
C      45.851650000000006     51.475549999999998     43.894500000000001
C      44.873350000000002     50.308449999999993     43.840499999999999
C      45.237650000000002     48.915850000000006     43.783600000000000
C      51.121250000000003     47.053150000000002     50.002800000000001
C      51.225850000000008     46.749549999999999     51.453700000000005
C      50.225549999999998     46.138050000000007     52.286499999999997
C      48.998050000000006     45.920450000000002     51.675500000000007
C      48.983350000000002     50.918149999999997     45.955900000000000
C      46.943449999999999     46.488950000000003     43.466000000000001
H      47.388249999999999     44.001550000000009     47.948600000000006
H      45.725949999999997     52.358450000000005     43.275100000000002
H      43.704250000000002     50.375249999999994     43.844500000000004
H      44.312950000000001     48.229050000000001     43.759799999999998
H      52.230050000000006     47.069649999999996     51.858899999999998
H      50.580050000000000     45.766450000000006     53.305900000000001
H      48.017049999999998     45.235650000000007     51.997099999999996
H      48.895750000000007     51.283550000000005     47.015200000000000
H      46.675650000000005     43.641549999999995     50.285000000000004
H      50.223650000000006     49.156949999999995     49.178800000000003
H      50.382350000000002     52.158550000000005     45.146599999999999
H      52.236150000000009     47.250249999999994     48.434000000000005
H      47.614350000000002     45.527150000000006     43.587400000000002
H      46.299750000000003     46.672250000000005     42.694099999999999
N      47.815350000000009     46.034250000000000     46.393700000000003
O      50.009050000000002     51.250950000000003     45.122199999999999
O      46.878450000000001     44.427149999999997     50.392800000000001
O      49.617150000000009     49.023350000000008     48.407000000000004
O      47.623149999999995     51.888750000000002     45.453400000000002
O      52.295749999999998     47.420550000000006     49.496199999999995
