18

C      48.170449999999988     48.795164999999990     47.522049999999993
C      47.621549999999999     48.216264999999993     48.753650000000000
C      47.202550000000002     49.272964999999999     46.735650000000000
C      46.286150000000006     48.394464999999997     49.464750000000002
C      49.557450000000003     48.475964999999995     47.236849999999997
C      48.264849999999996     47.365065000000001     49.622949999999996
C      45.832949999999997     49.048464999999993     46.930850000000000
C      45.414749999999998     48.430064999999999     48.170650000000002
C      50.341850000000008     47.552464999999998     48.106950000000005
C      49.579050000000009     47.233864999999994     49.281050000000000
H      47.564450000000008     49.554665000000000     45.697049999999997
H      45.942650000000000     49.197864999999993     50.101850000000006
H      50.145949999999999     48.311264999999999     46.254750000000001
H      47.519549999999995     46.887064999999993     50.302950000000003
H      45.050349999999995     49.418464999999998     46.224849999999996
H      44.401449999999997     48.110464999999998     48.092750000000002
H      51.598550000000003     47.346964999999997     48.256949999999996
H      49.964849999999998     46.445335000000000     49.988350000000004
