5

C      48.253799999999991     48.224124999999987     48.108449999999991
H      48.792400000000001     48.793895000000006     48.923950000000005
H      48.397199999999998     47.206104999999994     48.619550000000004
H      48.790700000000001     48.043004999999994     47.076049999999995
H      47.207599999999999     48.264635000000013     47.823350000000005
