17

C      47.485529999999997     48.255899999999997     47.396000000000001
C      48.694033000000012     48.503500000000010     48.367700000000006
C      47.103429999999996     47.163699999999999     46.460799999999999
C      49.659360000000014     47.521999999999998     48.475600000000007
C      46.566030000000005     49.295700000000004     47.583300000000001
C      48.616010000000003     49.524600000000000     49.409300000000009
C      48.272847000000006     46.348199999999999     46.697099999999999
C      49.253210000000003     46.420000000000002     47.660100000000007
C      46.314529999999998     49.919000000000004     48.923200000000001
C      47.399930000000005     50.111600000000003     49.627800000000001
H      46.263830000000006     47.105000000000004     45.874699999999997
H      50.418470000000006     47.304800000000007     49.292400000000008
H      45.685830000000003     49.582500000000003     46.961500000000008
H      49.376730000000009     49.629899999999999     50.125300000000003
H      48.161824720000006     45.447700000000005     46.046100000000003
H      50.085600000000007     45.788500000000006     47.759599999999999
H      45.581529999999994     50.552299999999995     49.394200000000005
