18

C      48.145849999999996     47.666049999999991     47.303089999999990
C      47.328150000000001     48.409450000000007     48.272689999999997
C      48.295750000000005     46.286349999999999     47.403389999999987
C      47.201250000000009     47.622650000000000     49.567445100000000
C      48.831350000000008     48.321050000000000     46.216290000000001
C      47.404550000000008     49.829149999999998     48.259389999999996
C      47.895450000000004     45.479450000000000     48.411589999999990
C      47.493250000000010     46.231749999999998     49.658861000000002
C      48.763449999999999     49.729749999999996     46.266089999999991
C      48.187950000000008     50.448250000000002     47.252289999999988
H      48.831450000000011     46.027949999999997     46.382489999999990
H      46.610650000000000     48.104950000000002     50.397931000000000
H      49.389350000000000     47.870350000000002     45.385889999999989
H      47.351649999999999     50.454650000000001     49.107589999999988
H      48.341450000000002     44.430250000000001     48.420289999999994
H      47.794050000000006     45.711649999999999     50.614110000000011
H      49.264450000000004     50.545450000000002     45.429589999999990
H      48.282150000000009     51.569749999999999     47.220789999999994
