18

C      47.556249999999984     47.920349999999992     48.145514999999996
C      48.607149999999990     48.283950000000004     47.312075000000007
C      46.658949999999990     46.820250000000001     47.729445000000005
C      49.025649999999999     47.369850000000000     46.195744400000009
C      47.411649999999995     48.349549999999994     49.548905000000005
C      49.579449999999994     49.331149999999994     47.741275000000009
C      46.986750000000001     46.159949999999995     46.644194000000006
C      48.243349999999992     46.374449999999996     45.838335000000001
C      48.638349999999988     48.954549999999998     49.928115000000005
C      49.579349999999991     49.662850000000006     49.102825000000010
H      45.586449999999999     46.713650000000001     48.132095000000007
H      49.954250000000002     47.504350000000002     45.570235000000011
H      46.981349999999992     47.605950000000007     50.282565000000005
H      50.245149999999995     49.717950000000002     46.946144000000004
H      46.261949999999999     45.466650000000001     46.253747000000004
H      48.316350000000000     45.469849999999994     44.937934999999996
H      48.707749999999990     49.154849999999996     51.062065000000004
H      50.413550000000001     50.533349999999999     49.414115000000010
