18

C      47.774134999999994     47.539699999999989     48.684299999999993
C      48.833254999999994     48.459000000000003     48.258699999999990
C      48.031894999999992     46.170000000000002     48.521900000000002
C      49.928854999999999     48.169899999999998     47.392299999999992
C      46.445054999999996     48.052599999999998     49.158999999999992
C      48.528454999999994     49.877700000000004     48.306799999999996
C      49.249964999999996     45.703400000000002     47.882399999999990
C      49.970534999999998     46.736400000000003     47.290700000000001
C      46.303464999999996     49.357100000000003     48.993200000000002
C      47.219314999999995     50.312200000000004     48.494500000000002
H      47.355274999999999     45.481700000000004     49.062399999999997
H      50.840824999999995     48.794300000000007     46.878799999999998
H      45.569584999999996     47.317099999999996     49.462299999999999
H      49.371814999999998     50.520200000000003     48.026200000000003
H      49.494384999999994     44.600899999999996     47.657899999999998
H      50.884405000000001     46.479799999999997     46.537700000000001
H      45.115594999999999     49.618899999999996     49.042799999999986
H      46.810294999999996     51.399100000000004     47.983300000000000
