18

C      47.337259999999986     47.929799999999993     47.640049999999995
C      48.646799999999999     47.881099999999996     48.412750000000003
C      46.691819999999993     49.076499999999996     47.291550000000001
C      49.232660000000010     49.183799999999998     48.551850000000002
C      46.652140000000003     46.783400000000000     47.363150000000005
C      49.406289999999998     46.724699999999999     48.450850000000003
C      47.248750000000001     50.451099999999997     47.576350000000005
C      48.411459999999991     50.342500000000001     48.250250000000008
C      47.248639999999995     45.476499999999994     47.737650000000002
C      48.614829999999998     45.649999999999999     47.982250000000008
H      45.672659999999993     46.555699999999995     46.856549999999999
H      46.742660000000001     51.477800000000002     47.480249999999998
H      50.066320000000005     49.278099999999995     49.143450000000001
H      50.466480000000004     46.410599999999995     48.940250000000006
H      45.533519999999996     49.296399999999991     47.097149999999999
H      49.035740000000004     51.250399999999999     48.606949999999998
H      46.703599999999994     44.522199999999998     47.426850000000002
H      48.612189999999998     44.583500000000001     48.465950000000007
