5

C      48.008949999999999     48.130049999999997     48.034349999999996
H      48.021849999999986     47.024250000000002     48.310749999999999
H      48.113049999999987     48.975749999999998     48.799250000000001
H      47.056849999999997     48.119449999999993     47.407750000000007
H      48.943150000000003     48.061050000000002     47.200749999999999
