21

C      45.333964999999992     49.691399999999987     47.135849999999991
C      48.734104999999992     47.758599999999994     47.046250000000001
C      48.533364999999996     47.481899999999996     48.542450000000002
C      49.993485000000000     47.240299999999998     46.557850000000002
C      49.286184999999996     46.474100000000000     49.220550000000003
C      47.833295000000000     48.866999999999997     46.727450000000005
C      47.643724999999996     48.096100000000000     49.433750000000003
C      50.532585000000005     46.249199999999995     47.344449999999995
C      50.479184999999994     46.093799999999995     48.789349999999999
C      46.601635000000009     48.902200000000001     47.487650000000002
C      46.705015000000003     48.930899999999994     48.951949999999997
H      44.599515000000004     48.923699999999997     47.486350000000002
H      45.431024999999998     50.555500000000002     47.693349999999995
H      45.102665000000002     49.674900000000001     46.115949999999998
H      50.191184999999997     47.209799999999994     45.365949999999998
H      49.080284999999996     46.088199999999993     50.293849999999992
H      47.924564999999994     49.661600000000000     45.996150000000000
H      47.605335000000004     47.751999999999995     50.634050000000002
H      51.400484999999996     45.631299999999996     46.834149999999994
H      51.194085000000008     45.444499999999998     49.453749999999999
H      45.827775000000010     49.376399999999997     49.558149999999998
