18

C      48.799659999999982     47.539499999999997     48.146399999999993
C      47.528859999999987     47.863399999999999     47.515100000000004
C      49.165369999999982     46.571500000000000     49.100499999999997
C      46.526495999999987     46.862799999999993     47.563099999999999
C      49.648979999999980     48.700499999999991     48.274699999999996
C      47.485849999999985     49.088999999999999     46.754000000000005
C      48.129339999999985     45.563000000000002     48.894099999999995
C      46.893249999999988     45.659399999999991     48.183800000000005
C      49.592979999999983     49.924999999999997     47.520299999999999
C      48.323899999999988     50.166600000000003     46.788399999999996
H      49.801259999999985     46.680899999999994     50.065899999999999
H      45.475200000000015     46.906300000000002     47.231200000000001
H      50.524799999999985     48.558700000000002     48.850600000000000
H      46.707298999999985     49.132199999999997     45.934100000000001
H      48.678699999999985     44.911000000000001     49.604199999999992
H      46.192810999999985     44.827900000000000     48.138100000000001
H      50.473029999999994     50.492300000000000     47.468900000000005
H      47.854849999999985     51.172100000000000     46.392899999999997
