18

C      48.237999999999985     48.501799999999989     48.712799999999994
C      48.168999999999997     47.744400000000006     47.522199999999998
C      49.216500000000011     48.508900000000004     49.687200000000004
C      48.990400000000008     46.613999999999997     47.481499999999997
C      47.175200000000004     49.467999999999996     49.021299999999997
C      46.979299999999995     47.962300000000006     46.677800000000005
C      50.375900000000001     47.660099999999993     49.512200000000007
C      50.049300000000002     46.735100000000003     48.462400000000002
C      45.859600000000000     49.222100000000005     48.658400000000000
C      45.814599999999999     48.617200000000004     47.273800000000008
H      49.335700000000003     49.211999999999996     50.353999999999999
H      48.825400000000002     45.762200000000000     46.547600000000003
H      47.293300000000002     50.237800000000000     49.701800000000006
H      46.896999999999991     47.700700000000005     45.646000000000001
H      51.221999999999994     47.763799999999996     50.184600000000003
H      50.499899999999997     45.822899999999997     48.353800000000007
H      44.778000000000006     49.145400000000002     49.067700000000002
H      44.832800000000006     48.693599999999996     46.671700000000001
