81

C      50.324885999999992     53.221850000000003     46.427849999999999
C      49.892986000000001     51.990750000000013     45.671850000000006
C      48.537085999999995     51.219150000000006     50.583449999999999
C      47.682386000000001     50.430350000000011     49.749750000000006
C      50.406585999999997     53.121050000000004     47.855850000000004
C      48.918085999999995     51.204350000000012     46.177950000000010
C      49.272286000000001     52.288950000000007     49.958849999999998
C      47.681385999999996     50.582750000000011     48.352550000000008
C      49.368085999999998     52.314450000000001     48.615650000000002
C      48.645285999999992     51.489850000000011     47.608150000000009
C      51.211585999999990     54.224350000000008     45.940849999999998
C      52.070385999999992     53.803850000000004     44.883550000000000
C      51.751385999999989     52.627750000000013     44.153250000000000
C      50.579885999999995     51.892550000000007     44.428150000000002
C      48.368785999999993     51.307250000000003     52.051150000000007
C      47.800586000000003     50.167850000000008     52.630549999999999
C      47.124586000000001     49.106250000000010     52.037050000000008
C      47.284185999999998     49.254450000000013     50.569249999999997
C      51.306586000000003     54.235850000000006     48.260050000000007
C      51.858185999999996     54.841850000000001     47.113349999999997
C      47.792485999999990     50.510850000000012     54.206050000000005
C      46.482486000000002     47.787350000000011     52.490350000000007
C      48.459786000000001     44.565050000000006     45.691249999999997
C      47.819885999999990     45.584650000000003     46.660350000000008
C      50.979886000000000     42.810050000000011     49.220050000000001
C      49.610285999999995     43.745350000000009     46.014250000000004
C      48.322285999999998     45.370750000000008     48.126249999999999
C      51.079085999999997     42.803850000000004     47.751649999999998
C      50.372585999999991     44.023750000000000     49.487650000000002
C      50.152785999999999     43.861250000000005     47.335450000000009
C      49.589285999999994     44.614950000000000     48.421450000000007
C      48.139186000000002     44.770650000000010     44.358850000000004
C      47.231885999999996     45.754450000000013     43.823149999999998
C      45.989685999999999     46.596250000000005     44.395849999999996
C      46.924185999999999     46.702450000000006     46.789250000000010
C      48.915485999999994     43.946050000000007     43.404849999999996
C      48.634985999999991     44.206050000000012     42.088949999999997
C      47.061286000000003     45.649350000000005     42.421650000000000
C      49.742085999999993     42.716350000000013     43.762050000000002
C      50.166685999999991     42.693450000000006     45.003850000000000
C      50.778686000000000     41.624350000000000     45.803550000000001
C      51.190385999999997     41.535050000000005     47.046450000000007
C      47.714385999999998     46.430550000000004     48.845950000000002
C      48.121186000000002     46.674550000000004     50.289749999999998
C      46.904485999999999     47.313650000000003     48.059150000000002
C      45.929585999999993     47.067650000000008     45.706450000000004
C      44.703285999999999     47.807450000000010     46.056550000000001
C      43.889385999999995     48.667650000000002     45.316050000000004
H      48.313585999999994     50.585850000000001     45.463549999999998
H      49.702486000000000     53.133550000000007     50.755650000000003
H      46.642885999999997     50.069950000000013     47.842550000000003
H      52.970914000000000     54.364750000000008     44.614850000000004
H      51.891885999999992     52.045150000000000     43.184250000000006
H      48.603586000000000     52.292650000000002     52.628050000000002
H      46.672185999999989     48.527550000000012     50.044849999999997
H      51.582686000000002     54.338450000000002     49.349050000000005
H      52.776571800000006     55.444150000000000     47.191550000000007
H      50.342685999999993     50.171450000000000     43.322249999999997
H      46.746785999999993     51.031650000000006     54.234650000000002
H      47.983485999999992     49.613950000000010     54.792749999999998
H      45.315885999999999     47.669250000000012     52.329350000000005
H      46.649685999999996     47.318950000000008     53.462150000000008
H      48.515085999999989     51.389450000000004     54.622950000000003
H      51.832286000000003     42.429850000000009     49.844250000000002
H      50.496586000000001     44.476750000000003     50.482349999999997
H      49.870585999999996     41.791250000000012     42.969350000000006
H      50.911285999999997     40.741150000000012     45.176850000000002
H      51.568285999999993     40.555850000000000     47.458550000000002
H      48.815486000000000     47.524950000000011     50.366550000000004
H      48.574385999999997     45.611650000000004     50.522649999999999
H      46.067385999999992     47.906950000000002     48.206350000000000
H      45.127186000000002     46.921450000000000     43.634950000000003
H      46.232685999999994     46.471650000000004     42.317050000000009
H      44.202385999999997     47.870650000000005     47.207250000000002
H      44.107385999999998     49.077050000000007     44.320350000000005
H      43.029086000000000     48.995150000000002     45.885850000000005
H      49.036085999999990     43.707650000000008     41.207250000000002
H      46.060386000000001     46.426450000000010     50.950550000000007
N      47.726886000000000     44.981950000000005     41.472650000000002
O      50.160285999999992     51.128950000000010     43.320949999999996
O      46.753285999999996     46.691450000000010     51.466650000000001
