18

C      48.703949999999992     47.526949999999999     48.638944999999993
C      47.323049999999995     47.284149999999997     48.127545000000005
C      49.759550000000004     47.036850000000001     47.725545000000004
C      47.162350000000004     46.855750000000000     46.756144999999997
C      48.987350000000006     48.243150000000000     49.806345000000000
C      46.138249999999999     47.777349999999998     48.868344999999998
C      49.473349999999996     46.463850000000008     46.466245000000001
C      48.170550000000006     46.479550000000003     45.884455000000003
C      47.929850000000002     49.047749999999994     50.338045000000001
C      46.635549999999995     48.638850000000005     49.966844999999999
H      50.813149999999993     46.982150000000004     47.939045000000000
H      46.321150000000003     47.189850000000007     46.095545000000001
H      49.908550000000005     48.438450000000003     50.200045000000003
H      45.186850000000007     47.514650000000003     48.637045000000001
H      50.278750000000002     46.155150000000006     45.821975000000002
H      47.665250000000000     46.222449999999995     44.899655000000003
H      47.956950000000006     49.844849999999994     51.100344999999997
H      45.915149999999997     48.644549999999995     50.841644999999993
