18

C      47.798399999999994     48.358399999999996     48.664399999999993
C      46.998699999999999     48.467500000000001     47.308899999999994
C      47.799400000000006     47.062200000000004     49.272999999999996
C      46.396300000000004     47.317700000000002     46.885700000000000
C      48.503300000000010     49.544400000000003     49.230599999999995
C      47.259300000000003     49.695000000000007     46.518799999999999
C      47.206100000000006     45.977600000000002     48.608400000000003
C      46.332300000000004     46.032400000000003     47.541699999999992
C      48.949299999999994     50.252700000000004     48.075900000000004
C      48.464600000000004     50.292100000000005     46.780299999999997
H      48.145300000000006     46.919300000000000     50.319000000000003
H      46.115600000000001     47.902000000000001     45.861400000000003
H      48.904000000000011     49.375200000000007     50.177300000000002
H      46.698599999999999     50.106900000000003     45.680999999999997
H      47.404600000000002     45.042100000000005     48.924399999999991
H      46.156199999999998     45.244300000000003     46.911599999999993
H      49.884399999999999     50.919399999999996     48.374200000000002
H      48.927999999999997     50.957899999999995     45.988199999999992
