18

C      47.517700000000005     48.156649999999992     48.533600000000000
C      48.980400000000003     48.364049999999999     48.139200000000002
C      46.491699999999994     48.967349999999996     48.089600000000004
C      49.464799999999997     49.617449999999998     47.539800000000000
C      47.248499999999993     46.891649999999998     49.119900000000001
C      49.727000000000004     47.223349999999996     47.978200000000001
C      46.936099999999996     50.071749999999994     47.317900000000009
C      48.242400000000004     50.333349999999996     47.290199999999999
C      48.153599999999997     45.717150000000004     49.081100000000006
C      49.467699999999994     45.952050000000000     48.374600000000001
H      45.383300000000006     48.615449999999996     48.251700000000000
H      50.232500000000002     50.195650000000001     47.837200000000010
H      46.265299999999996     46.299650000000000     48.909999999999997
H      50.616699999999994     47.363650000000000     47.314999999999998
H      46.159099999999995     50.806150000000002     46.880099999999999
H      48.454400000000007     51.339150000000004     46.929800000000000
H      47.718199999999996     44.660849999999996     48.969400000000007
H      50.069999999999993     45.021549999999998     48.051000000000002
