18

C      48.246199999999988     48.367849999999990     48.536649999999995
C      47.601799999999990     47.778750000000009     47.371549999999999
C      49.195799999999998     49.428649999999998     48.417450000000002
C      47.850199999999994     48.344450000000002     46.108850000000004
C      48.097000000000001     47.817349999999998     49.848049999999994
C      46.878200000000000     46.545850000000009     47.574050000000000
C      49.652099999999997     49.778750000000009     47.137950000000004
C      48.818700000000000     49.394150000000003     46.016449999999999
C      47.121099999999991     46.778550000000003     49.923549999999999
C      46.593200000000003     46.137350000000005     48.797450000000005
H      49.728099999999991     49.925050000000006     49.174050000000001
H      48.709799999999994     48.189150000000005     50.707950000000004
H      46.426600000000001     45.959350000000008     46.598849999999999
H      49.908999999999999     50.786650000000002     46.971350000000001
H      49.363899999999994     49.375350000000005     45.154050000000005
H      46.860199999999999     46.256750000000004     50.845949999999995
H      46.091000000000001     45.213349999999998     48.609950000000005
H      47.650500000000001     47.637650000000001     45.188050000000004
