5

C      47.828499999999991     48.139299999999992     47.925349999999995
H      47.130399999999995     47.738300000000002     48.769950000000001
H      47.216700000000003     48.847699999999996     47.491149999999998
H      47.753500000000003     47.152300000000004     47.230049999999999
H      48.869600000000005     48.300699999999999     47.997350000000004
