23

C      48.551199999999994     50.648999999999987     48.160299999999992
C      47.734899999999996     47.204300000000003     48.069699999999997
C      48.021999999999991     48.196399999999997     47.082099999999997
C      47.231399999999994     47.385099999999994     49.540899999999993
C      48.294499999999999     49.439300000000003     47.607900000000001
C      48.253099999999989     45.955299999999994     47.909700000000001
C      48.208100000000002     47.666100000000000     45.661400000000000
C      48.238599999999991     46.671999999999997     50.394000000000005
C      47.941000000000003     46.369199999999992     51.731300000000005
C      48.940199999999990     45.670999999999992     46.796099999999996
C      49.024900000000002     46.495900000000006     45.560599999999994
H      47.969299999999990     51.266400000000004     49.005700000000004
H      49.709299999999999     51.012000000000000     48.141199999999998
H      47.314200000000000     48.368899999999996     49.843400000000003
H      46.290700000000001     46.773099999999999     49.669600000000003
H      47.929800000000000     47.525000000000006     43.705399999999997
H      48.153099999999995     45.219499999999996     48.759800000000013
H      49.494999999999990     46.065899999999999     44.678899999999999
H      49.177499999999995     46.522300000000001     49.943399999999997
H      46.932199999999995     46.052099999999996     52.064700000000002
H      49.519899999999993     44.733599999999996     46.425200000000004
H      48.580599999999990     45.778199999999998     52.294600000000003
O      47.665300000000002     47.977099999999993     44.490099999999998
