18

C      48.264499999999998     48.148850000000003     47.253999999999991
C      47.579200000000007     48.190750000000008     48.571700000000000
C      49.426900000000010     48.859650000000002     46.844199999999994
C      48.155200000000001     48.984549999999999     49.608200000000004
C      47.561700000000009     47.266249999999999     46.357899999999994
C      46.556699999999999     47.112150000000000     49.088400000000000
C      49.929600000000001     49.355850000000004     48.076599999999999
C      49.354199999999999     49.700850000000003     49.306300000000000
C      46.602300000000007     46.264050000000012     46.660799999999995
C      46.087100000000000     46.363650000000007     48.013299999999994
H      50.840600000000002     49.984650000000002     47.882500000000000
H      49.982100000000010     48.990150000000000     45.991000000000000
H      47.547900000000006     48.975350000000006     50.532800000000002
H      47.763500000000001     47.815850000000012     45.467199999999998
H      46.171200000000006     47.273150000000001     50.039099999999998
H      49.620200000000004     50.204250000000002     50.405999999999999
H      45.880100000000006     45.795749999999998     46.168199999999999
H      45.159399999999998     45.885850000000005     47.833900000000000
