50

C      47.298649999999988     46.698349999999998     47.614765999999996
C      47.109749999999998     45.685950000000005     46.571066000000002
C      46.479050000000001     43.857050000000001     51.141065999999995
C      47.174650000000000     46.879050000000007     48.989065999999994
C      46.777549999999998     44.490850000000009     47.328766000000002
C      46.752649999999996     45.367249999999999     51.066866000000005
C      46.584649999999996     43.402450000000002     49.832465999999997
C      47.082449999999994     45.614249999999998     49.718466000000006
C      46.767350000000000     44.423150000000007     48.790965999999997
C      47.500249999999994     48.042749999999998     46.965066000000007
C      47.845450000000000     48.390150000000006     45.567366000000007
C      48.368449999999996     47.276150000000001     44.841065999999998
C      47.658050000000003     46.137950000000004     45.250066000000004
C      47.483350000000002     49.399250000000009     47.586066000000002
C      47.337649999999996     50.806250000000006     47.046565999999999
C      47.789549999999991     50.868450000000010     45.702466000000001
C      48.433650000000000     49.684150000000002     45.049965999999998
C      47.628049999999995     48.070149999999998     49.654566000000003
C      47.785049999999998     49.262250000000009     49.001565999999997
C      46.915549999999996     43.115750000000006     46.691466000000005
C      47.178549999999994     44.891050000000007     44.367965999999996
C      47.991950000000003     44.486150000000009     43.362065999999999
C      46.465750000000000     43.018550000000005     52.258566000000002
C      47.426850000000002     52.126050000000006     45.029666000000006
C      48.886849999999995     52.681950000000001     44.685665999999998
C      48.964050000000000     53.563850000000002     43.506566000000007
C      47.761150000000001     47.864350000000002     51.218165999999997
H      47.965050000000005     43.542349999999999     42.871566000000001
H      46.714549999999996     46.178550000000001     51.778766000000005
H      46.461749999999995     42.346950000000007     49.490166000000002
H      48.885349999999995     47.351150000000004     43.976265999999995
H      47.174149999999997     51.555149999999998     47.758166000000003
H      48.286449999999988     46.923349999999999     51.386666000000005
H      48.202249999999999     49.914150000000006     49.919566000000003
H      47.589050000000000     43.561149999999998     46.056765999999996
H      47.186450000000001     42.184049999999999     47.052366000000006
H      45.857450000000000     43.155349999999999     46.270266000000007
H      46.198249999999994     44.452550000000002     44.497566000000006
H      48.890249999999995     45.067450000000008     43.210465999999997
H      46.178349999999995     41.444850000000002     52.149566000000007
H      49.520849999999996     51.716750000000005     44.855366000000004
H      48.932649999999995     53.267450000000011     45.657566000000003
H      50.142550000000000     53.560050000000004     43.393466000000004
H      48.754249999999999     54.555149999999998     44.092365999999998
H      48.382849999999991     53.167650000000009     42.624966000000001
H      46.840550000000000     47.720849999999999     51.850666000000004
H      48.130249999999997     48.602150000000009     51.963266000000004
O      46.793549999999996     43.056750000000008     53.375033999999999
O      46.436949999999996     52.817750000000004     45.236266000000001
O      49.273650000000004     49.599850000000004     44.176565999999994
