9

C      48.561699999999988     48.009049999999988     48.727649999999990
C      47.462599999999995     48.251550000000002     47.802149999999997
C      47.284499999999994     47.171549999999996     47.326650000000001
H      48.327700000000007     47.833749999999995     49.748049999999999
H      49.206900000000005     48.912950000000002     48.694649999999996
H      46.831599999999995     49.160750000000000     47.782049999999998
H      46.579800000000006     46.839250000000000     47.985250000000001
H      46.759699999999995     47.597749999999998     46.251950000000001
H      49.420199999999994     47.322749999999999     48.414049999999996
