18

C      47.630749999999992     47.366099999999996     48.586029999999994
C      47.450749999999999     48.260499999999993     47.325209999999998
C      47.089449999999999     47.783100000000005     49.817609999999988
C      46.409750000000003     49.212599999999995     47.431020000000004
C      48.619649999999993     46.211699999999993     48.303049999999999
C      48.205550000000002     47.979699999999994     46.118489999999994
C      46.351149999999990     48.900999999999996     49.716499999999996
C      46.137649999999994     49.604500000000002     48.637709999999998
C      49.411049999999989     46.236499999999992     47.266409999999993
C      49.336749999999995     47.100099999999998     46.105329999999995
H      47.442549999999997     47.222200000000001     50.848799999999997
H      45.967649999999992     49.831400000000002     46.593980000000002
H      49.129049999999992     45.595500000000001     49.090260000000001
H      48.177250000000001     49.011399999999995     45.151200000000003
H      45.850349999999992     49.256000000000000     50.691900000000004
H      45.382249999999999     50.404499999999999     48.868690000000001
H      50.617750000000001     45.803899999999999     47.393129999999999
H      50.285549999999986     47.280900000000003     45.419910000000002
