5

C      48.002949999999991     47.761049999999990     47.733999999999995
H      49.050550000000001     47.496350000000000     47.202500000000001
H      46.949449999999999     47.166550000000001     47.523900000000012
H      47.938450000000003     47.340350000000001     48.797499999999999
H      47.992950000000000     48.833449999999999     47.566100000000006
