5

C      47.983049999999999     47.908315000000002     47.960999999999991
H      48.578550000000007     47.361085000000003     47.203999999999994
H      47.278250000000000     47.188824999999994     48.165599999999998
H      48.721750000000000     48.128444999999999     48.796000000000006
H      47.498649999999998     48.811175000000006     47.257700000000000
