18

C      48.761219999999994     48.099789999999992     47.830799999999996
C      47.279620000000001     47.925689999999996     48.048199999999994
C      49.594590000000004     47.747619999999998     48.983899999999991
C      46.941980000000001     47.022089999999999     49.084400000000002
C      49.175530000000002     48.872590000000002     46.768900000000002
C      46.381890000000006     48.745089999999998     47.313400000000001
C      49.131980000000006     47.069580000000002     50.089100000000002
C      47.781940000000006     46.595209999999994     50.165700000000001
C      48.180020000000006     49.525990000000000     45.904700000000005
C      46.831630000000004     49.431190000000001     46.231899999999996
H      50.676589999999997     47.732740000000000     48.901699999999991
H      45.813520000000004     46.861879999999999     49.060400000000001
H      50.266790000000007     48.935890000000001     46.537000000000006
H      45.323410000000003     48.980789999999999     47.476500000000001
H      49.785990000000005     46.562959999999997     50.905799999999999
H      47.518830000000001     45.990910000000000     51.039800000000000
H      48.579620000000006     50.009090000000000     44.960200000000000
H      45.957980000000006     49.853189999999998     45.576899999999995
