7

C      48.173199999999994     47.968949999999992     48.245449999999998
C      47.718000000000004     46.660549999999994     48.153550000000003
C      48.790600000000005     49.239150000000002     48.120050000000006
H      48.521200000000000     45.906450000000000     47.862350000000006
H      46.763200000000005     46.200250000000004     48.519950000000009
H      49.236799999999995     49.334049999999998     47.298450000000003
H      48.361499999999999     50.093550000000000     48.701549999999997
