18

C      47.868399999999994     48.536099999999983     48.651799999999994
C      48.931699999999992     48.160199999999989     47.646700000000010
C      46.789500000000004     49.474599999999995     48.281700000000001
C      48.806600000000003     48.732599999999991     46.381799999999998
C      47.622600000000006     47.693799999999996     49.771000000000001
C      49.509599999999992     46.891099999999994     47.741000000000000
C      46.567200000000000     49.913699999999992     46.989099999999993
C      47.665099999999995     49.600899999999996     46.105800000000002
C      48.504700000000000     46.755699999999990     49.919499999999999
C      49.484099999999998     46.257700000000000     49.001300000000001
H      46.178899999999999     49.928100000000001     49.302400000000006
H      49.615399999999994     48.424199999999999     45.623499999999993
H      46.858999999999995     47.925199999999990     50.608600000000010
H      50.191299999999998     46.557099999999991     46.930999999999997
H      45.808700000000002     50.558199999999999     46.775999999999996
H      47.560400000000001     50.042000000000002     45.159899999999993
H      48.365099999999998     46.142399999999995     50.840100000000007
H      50.170500000000004     45.441800000000001     49.317099999999996
