18

C      48.523449999999997     47.988519999999994     47.283699999999996
C      47.425950000000000     48.160720000000005     48.138700000000000
C      48.341149999999999     47.765650000000001     45.858199999999997
C      46.064850000000007     48.077230000000000     47.724800000000002
C      49.835549999999998     48.001060000000003     47.933199999999999
C      47.777950000000004     48.027140000000010     49.556100000000001
C      46.880250000000004     47.555219999999998     45.483499999999992
C      45.901650000000004     47.970060000000004     46.306899999999999
C      50.082949999999997     48.178739999999998     49.299599999999998
C      49.003250000000008     48.172950000000007     50.224999999999994
H      49.152050000000003     47.852480000000000     45.072400000000002
H      45.247550000000004     47.984839999999998     48.415399999999991
H      50.896150000000006     47.887540000000001     47.267099999999999
H      46.980750000000000     47.620640000000002     49.914099999999991
H      46.731250000000003     47.610920000000000     44.525099999999995
H      44.940849999999998     47.793830000000000     45.918499999999995
H      51.059150000000002     48.444780000000002     49.891899999999993
H      49.025749999999988     48.127749999999999     51.474900000000005
