5

C      48.011349999999993     47.974499999999992     47.869349999999997
H      47.790350000000004     48.150200000000005     48.928449999999998
H      48.351150000000004     49.054700000000004     47.777149999999992
H      48.616549999999997     46.945299999999996     47.801249999999996
H      47.383450000000003     47.729300000000002     47.071550000000002
