8

C      47.822299999999991     48.279249999999990     48.612049999999996
C      48.132499999999993     47.652450000000002     47.287649999999999
H      47.826099999999997     47.682650000000010     49.385150000000003
H      47.987200000000001     49.449550000000002     48.759849999999993
H      46.735900000000001     48.485349999999997     48.730449999999998
H      47.434100000000001     46.550449999999998     47.183750000000003
H      49.264099999999999     47.391850000000005     47.172049999999999
H      47.814899999999994     48.571350000000010     46.614849999999997
