21

C      49.570749999999997     46.436949999999996     49.672099999999993
C      47.838750000000005     47.841549999999998     48.266100000000002
C      46.866750000000003     48.986950000000007     48.056399999999996
C      48.176250000000003     47.009349999999998     47.119799999999998
C      46.422250000000005     49.106650000000002     46.774799999999999
C      48.591450000000002     47.633949999999999     49.540799999999997
C      46.486950000000000     49.693849999999998     49.310600000000001
C      47.754650000000005     47.514949999999999     45.813699999999997
C      46.705350000000003     48.477450000000005     45.620199999999997
C      48.342850000000006     48.522149999999996     50.577599999999990
C      47.316850000000002     49.633150000000001     50.422100000000000
H      48.970850000000006     45.457949999999997     49.844000000000008
H      50.331050000000005     46.436650000000000     50.436999999999998
H      50.371449999999996     46.230450000000005     48.951900000000002
H      49.014450000000004     46.305450000000008     47.232199999999999
H      45.628550000000004     49.851650000000006     46.683199999999999
H      46.554950000000005     49.998950000000008     51.154899999999998
H      45.716450000000002     50.542050000000003     49.174500000000002
H      48.057150000000000     46.751249999999999     45.168900000000001
H      46.285450000000004     48.937250000000006     44.576799999999999
H      48.954250000000002     48.374549999999999     51.423200000000001
