18

C      47.877399999999994     47.639249999999997     47.533349999999992
C      48.125300000000003     48.742850000000004     48.456849999999989
C      46.764600000000002     46.803950000000000     47.674749999999989
C      47.549500000000002     48.685950000000005     49.728850000000001
C      48.452700000000000     47.484850000000002     46.204349999999998
C      49.278399999999998     49.608050000000006     48.144250000000000
C      46.136500000000005     46.743050000000004     48.958750000000009
C      46.533499999999997     47.695050000000002     49.938550000000006
C      49.491199999999999     48.458750000000009     45.833349999999996
C      49.783999999999999     49.525250000000000     46.845950000000002
H      46.510100000000001     46.171950000000002     46.681849999999997
H      47.941400000000009     49.503050000000002     50.473849999999999
H      48.320799999999998     46.522550000000003     45.522449999999999
H      49.904600000000002     50.045749999999998     49.032849999999996
H      45.212899999999998     45.954250000000002     49.122650000000000
H      45.869099999999996     47.780150000000006     50.853149999999999
H      50.017299999999999     47.843350000000001     45.146850000000001
H      50.787100000000002     50.018250000000009     47.163249999999998
