14

C      49.105400000000003     47.139849999999988     45.874384999999990
C      47.826700000000010     47.376649999999998     46.396404999999987
C      48.165600000000005     48.358149999999995     47.546864999999997
C      47.245899999999999     48.111050000000006     48.549364999999995
C      47.234000000000002     48.690550000000002     50.028864999999996
H      46.498000000000012     48.236450000000005     50.662965000000000
H      48.995000000000012     46.196749999999994     45.337035000000000
H      49.850400000000000     47.767049999999998     45.719984999999994
H      46.729600000000012     46.903350000000003     46.161504999999991
H      46.149600000000000     48.609949999999998     48.224464999999995
H      47.329700000000010     46.981849999999994     48.452564999999993
H      47.301100000000012     49.803250000000006     49.796764999999994
H      48.224900000000012     48.694450000000003     50.530664999999999
O      49.082500000000003     49.107249999999993     47.449064999999990
