18

C      48.585249999999995     47.702349999999996     48.372350000000004
C      47.735749999999996     48.630450000000003     47.650250000000000
C      48.376649999999998     47.682449999999996     49.792950000000005
C      46.324150000000003     48.609649999999995     47.903750000000002
C      49.718050000000005     47.133850000000002     47.812150000000003
C      48.040750000000003     48.988450000000007     46.198050000000009
C      47.038449999999997     48.105550000000001     50.060550000000006
C      45.907349999999994     48.450350000000007     49.212450000000004
C      50.148449999999997     47.898750000000000     46.675450000000012
C      49.342749999999995     48.584949999999999     45.723250000000007
H      49.094549999999998     47.469450000000002     50.640650000000008
H      45.476749999999996     49.169149999999995     47.512150000000005
H      50.326949999999997     46.687350000000002     48.554150000000007
H      47.352649999999997     49.312649999999998     45.464350000000010
H      46.564750000000004     48.283549999999998     51.072749999999999
H      44.722250000000003     48.581750000000007     49.363350000000011
H      51.277749999999997     48.493249999999996     46.543750000000003
H      49.938050000000004     49.111750000000008     44.927250000000001
