18

C      48.432999999999993     48.001949999999994     48.492249999999991
C      47.644199999999998     47.308950000000003     47.454149999999998
C      47.699100000000001     48.871850000000002     49.443550000000002
C      46.331699999999998     47.835050000000003     47.165450000000000
C      49.734199999999994     47.860850000000006     48.826949999999997
C      48.417200000000001     46.563650000000003     46.527149999999999
C      46.471100000000000     49.244850000000007     49.079449999999994
C      45.549199999999999     48.647449999999999     48.052950000000003
C      50.472400000000000     47.193350000000002     47.829749999999997
C      49.786400000000008     46.642950000000006     46.835250000000002
H      48.122500000000002     49.217250000000000     50.466850000000001
H      46.033700000000003     47.853850000000001     46.102550000000001
H      50.409399999999998     48.319849999999995     49.723650000000006
H      48.128200000000000     46.067450000000001     45.533149999999999
H      46.349600000000002     49.932549999999999     50.001150000000010
H      44.516199999999998     49.290950000000002     47.846449999999997
H      51.483800000000002     47.103950000000005     48.041649999999997
H      50.360400000000006     46.131650000000000     46.080149999999996
