18

C      48.057849999999995     48.276059999999987     47.229049999999994
C      47.474150000000009     47.889259999999993     48.597049999999996
C      48.549250000000001     47.300569999999993     46.284549999999996
C      47.338549999999998     46.442959999999999     48.732550000000003
C      48.505450000000010     49.576359999999994     47.230849999999997
C      47.232349999999997     48.914259999999999     49.538649999999997
C      48.405650000000009     45.937339999999992     46.396649999999994
C      47.669049999999999     45.647499999999994     47.633550000000000
C      48.582250000000002     50.459660000000000     48.342949999999995
C      47.958750000000009     50.139460000000000     49.527149999999999
H      48.941350000000000     47.774860000000004     45.394750000000002
H      46.659750000000003     45.792500000000004     49.326049999999995
H      49.340249999999997     50.089759999999998     46.270349999999993
H      47.300550000000001     48.521860000000004     50.605249999999998
H      48.875650000000007     45.310969999999998     45.674849999999999
H      47.650149999999996     44.585539999999995     47.726249999999993
H      49.148750000000007     51.414460000000005     48.358649999999997
H      47.795749999999998     50.777760000000001     50.473549999999996
