18

C      47.947049999999990     48.793549999999989     47.500834999999995
C      48.084150000000001     47.516850000000005     48.318354999999997
C      47.065849999999998     48.592650000000006     46.369294999999994
C      47.165649999999999     46.387349999999998     48.191954999999993
C      48.818649999999998     49.929050000000004     47.668954999999997
C      49.039349999999999     47.699550000000002     49.393455000000003
C      46.005249999999997     47.619450000000001     46.433875000000000
C      46.354250000000000     46.308050000000009     46.953604999999996
C      49.785549999999994     49.876050000000006     48.754154999999997
C      49.811050000000002     48.747150000000005     49.589354999999998
H      47.187049999999999     49.206750000000000     45.606245000000001
H      47.022349999999996     45.343649999999997     48.598455000000001
H      48.757449999999999     50.635050000000007     46.824304999999995
H      49.065949999999994     46.760249999999999     49.886454999999998
H      45.362349999999999     47.449250000000006     45.609105000000000
H      46.100149999999999     45.621350000000007     46.042394999999999
H      50.534050000000001     50.656350000000003     49.080055000000002
H      50.637650000000001     48.756850000000000     50.393754999999999
