18

C      47.808449999999993     47.505099999999985     47.619999999999990
C      48.331949999999999     48.662500000000001     48.282200000000003
C      48.053649999999998     47.318099999999994     46.299000000000007
C      49.207850000000001     49.527999999999999     47.562800000000010
C      46.971750000000000     46.440099999999994     48.382100000000008
C      47.822150000000001     48.840499999999999     49.664600000000007
C      49.150849999999998     48.112999999999992     45.630200000000002
C      49.287849999999999     49.377199999999995     46.159599999999998
C      46.698850000000000     46.747700000000002     49.697400000000002
C      46.836649999999999     48.066499999999998     50.344099999999997
H      47.577950000000001     46.315899999999992     46.227599999999995
H      49.444150000000000     50.609800000000000     47.836200000000005
H      46.731749999999998     45.390200000000000     48.018700000000010
H      48.377649999999996     49.698099999999990     50.004900000000006
H      49.592050000000008     47.752899999999990     44.701099999999997
H      49.800950000000000     50.113499999999995     45.678600000000003
H      46.254550000000002     45.747899999999994     50.149299999999997
H      46.199050000000000     48.119700000000002     51.298900000000003
