18

C      47.024499999999989     47.402949999999990     47.890449999999994
C      48.214200000000005     48.101650000000006     48.488950000000003
C      46.437799999999996     48.452650000000006     46.988450000000000
C      47.997500000000002     49.553950000000000     48.671750000000003
C      46.752399999999994     46.022649999999999     48.010949999999994
C      49.360100000000003     47.386350000000007     48.736850000000004
C      46.512699999999995     49.817050000000009     47.012649999999994
C      47.491200000000006     50.510050000000007     47.802149999999997
C      47.876199999999997     45.361850000000004     48.520949999999999
C      49.262700000000009     45.981449999999995     48.587149999999994
H      45.674300000000002     47.818550000000002     46.467150000000004
H      48.514200000000002     49.695850000000007     49.532849999999996
H      45.788300000000007     45.678950000000000     47.737350000000006
H      50.325699999999998     47.779350000000008     48.927650000000000
H      45.807900000000004     50.664050000000003     46.514449999999997
H      47.643600000000006     51.569050000000004     47.650949999999995
H      47.820300000000003     44.430949999999996     49.028350000000003
H      50.105999999999995     45.366450000000000     48.862549999999999
