65

C      51.040739999999985     51.852604999999990     45.522699999999986
C      47.331840000000000     44.968004999999998     49.840370000000007
C      45.902739999999994     45.526804999999996     49.891770000000008
C      51.399240000000006     50.488704999999996     45.968090000000004
C      44.348249999999993     50.639404999999996     48.394279999999995
C      49.825839999999999     52.504304999999995     45.869579999999999
C      48.309039999999996     45.779804999999996     49.273970000000006
C      45.365539999999996     51.434204999999992     47.546790000000001
C      45.732540000000000     46.922204999999998     50.044870000000003
C      44.855440000000002     49.417104999999992     49.003209999999996
C      47.637439999999998     51.798904999999998     46.325990000000004
C      49.153539999999992     47.422704999999993     47.017700000000005
C      49.062939999999998     51.447104999999993     46.501989999999992
C      47.931339999999992     47.151204999999997     49.067179999999993
C      46.778840000000002     51.208905000000001     47.365300000000005
C      46.634739999999994     47.827304999999996     49.404470000000003
C      49.555639999999997     50.192704999999997     47.059339999999992
C      46.297640000000001     49.139904999999999     48.979169999999996
C      48.411639999999991     49.498004999999999     47.640740000000008
C      47.126339999999999     50.053804999999997     48.196510000000004
C      44.250789999999995     47.257604999999998     50.088070000000002
C      43.965159999999997     48.556104999999995     49.674469999999999
C      52.167339999999996     52.598104999999997     44.898799999999994
C      53.628739999999993     52.284504999999996     44.916550000000001
C      53.839739999999992     50.933304999999997     45.247419999999991
C      52.712640000000007     50.069004999999997     45.468670000000003
C      47.736139999999992     43.614964999999998     49.709370000000007
C      46.676940000000002     42.682134999999995     49.675870000000003
C      45.473039999999997     43.106384999999996     50.211370000000002
C      45.000039999999998     44.480204999999998     50.272970000000001
C      43.826859999999996     44.997604999999993     50.842070000000007
C      43.418920000000000     46.394104999999996     50.828170000000000
C      43.066839999999999     51.038304999999994     48.511849999999995
C      42.688260000000000     52.316604999999996     47.809579999999997
C      43.560909999999993     52.738204999999994     46.759230000000002
C      45.014839999999992     52.581204999999997     46.818049999999999
C      42.224750000000000     50.547604999999997     49.675370000000001
C      42.539349999999999     49.046205000000000     50.157969999999992
C      45.869940000000000     53.432604999999995     46.062980000000010
C      47.144739999999999     53.000204999999994     45.708349999999996
C      48.595939999999999     48.051404999999995     48.026200000000003
C      48.935140000000004     42.904364999999999     49.086309999999997
H      49.547740000000005     53.356904999999998     45.154190000000000
H      49.431740000000005     45.349504999999994     48.923879999999997
H      49.391639999999995     46.257404999999999     46.835170000000005
H      51.894639999999995     53.649604999999994     44.571029999999993
H      54.471840000000000     52.972605000000001     44.608609999999999
H      54.878640000000004     50.723104999999997     45.634280000000004
H      52.960639999999998     48.957004999999995     45.497479999999996
H      48.715540000000004     41.682865000000000     49.266340000000000
H      46.878439999999998     41.640794999999997     49.697569999999999
H      44.633389999999991     42.655265000000000     50.505970000000005
H      43.251539999999991     44.209454999999998     51.376670000000004
H      42.605519999999999     46.755204999999997     51.428970000000007
H      41.604860000000002     52.433504999999997     47.525819999999996
H      43.106059999999999     53.524104999999992     46.040719999999993
H      42.716499999999996     51.094605000000001     50.421269999999993
H      41.121359999999996     50.592504999999996     49.599570000000000
H      42.427250000000001     49.061004999999994     51.176369999999991
H      41.702889999999996     48.358804999999997     49.750969999999995
H      45.519539999999992     54.359205000000003     45.470010000000002
H      47.767240000000001     53.559905000000001     45.041060000000002
H      49.272739999999999     48.229804999999999     46.301310000000001
N      50.769440000000003     49.680205000000001     46.749639999999999
O      50.079039999999992     43.340144999999993     49.261849999999995
