18

C      48.410724999999985     47.652299999999990     47.678749999999994
C      47.204054999999997     48.526100000000000     48.295549999999999
C      49.329954999999998     46.872900000000001     48.534649999999999
C      47.127825000000001     48.316299999999998     49.720350000000003
C      48.189394999999990     47.488999999999997     46.304850000000002
C      46.560724999999991     49.453299999999999     47.576149999999998
C      49.120954999999995     46.966899999999995     49.989550000000001
C      48.037684999999996     47.597899999999996     50.600349999999999
C      47.400184999999993     48.219499999999996     45.437649999999998
C      46.681534999999997     49.199500000000000     46.161850000000001
H      49.671835000000002     45.738500000000002     48.495350000000009
H      46.411154999999994     49.154799999999994     50.160049999999991
H      48.872574999999998     46.764200000000002     45.847650000000002
H      46.014865000000000     50.261499999999998     48.022550000000003
H      50.220075000000008     46.704799999999999     50.498150000000003
H      48.044294999999991     48.074299999999994     51.739849999999997
H      47.560535000000002     48.244299999999996     44.260150000000003
H      45.779924999999992     50.076799999999992     45.817650000000000
