18

C      47.833050000000000     48.027699999999996     48.575599999999994
C      48.085350000000005     47.362799999999993     47.342399999999998
C      46.772950000000002     47.731099999999998     49.466200000000001
C      46.880150000000008     46.718900000000005     46.789000000000001
C      48.730050000000006     49.081400000000002     49.188899999999997
C      49.269050000000000     47.792900000000003     46.583999999999996
C      45.785850000000003     47.016700000000000     48.869799999999991
C      45.681250000000006     46.490499999999997     47.537500000000001
C      49.942450000000001     49.042599999999993     48.479599999999998
C      50.458750000000002     48.271500000000003     47.283999999999999
H      46.647050000000000     48.316899999999990     50.536300000000004
H      46.901350000000001     46.008600000000001     45.893000000000001
H      48.369050000000001     49.824799999999996     49.907400000000003
H      49.110650000000000     47.535499999999999     45.463699999999996
H      45.038250000000005     46.568500000000000     49.459299999999992
H      44.821350000000002     46.242400000000004     47.014200000000002
H      50.438050000000004     49.991399999999999     48.891399999999997
H      51.178649999999998     49.036400000000000     47.131500000000003
