18

C      47.696349999999988     48.736289999999990     48.682829999999989
C      48.768749999999997     48.224080000000001     47.799749999999996
C      47.805250000000001     48.153489999999998     49.978319999999997
C      49.384249999999994     46.869489999999999     47.759859999999996
C      46.730949999999993     49.671300000000002     48.103209999999997
C      48.913550000000001     48.694910000000000     46.471269999999997
C      48.308549999999997     46.903549999999996     50.033839999999998
C      49.017650000000003     46.236530000000002     49.020729999999986
C      46.887849999999993     50.260530000000003     46.780349999999999
C      47.939449999999994     49.547829999999998     46.046769999999995
H      46.972949999999997     48.194980000000001     50.731099999999998
H      50.200350000000000     46.503399999999999     47.102599999999995
H      45.799650000000000     49.806350000000002     48.760120000000001
H      49.503549999999990     48.084299999999999     45.771259999999998
H      48.026150000000001     46.326009999999997     51.024860000000004
H      49.374149999999993     45.125950000000003     49.046899999999994
H      46.150949999999995     50.874049999999997     46.490219999999994
H      47.782349999999994     49.776460000000000     44.975139999999996
