60

C      49.601869999999991     50.691749999999999     52.210449999999994
C      51.049270000000000     50.819449999999996     52.135150000000003
C      49.034370000000003     49.814850000000000     51.171550000000003
C      51.833770000000008     50.697250000000004     50.996350000000000
C      48.799070000000000     51.149750000000004     53.372350000000004
C      51.603270000000002     51.217649999999999     53.439150000000005
C      49.760570000000001     48.567050000000002     50.920049999999996
C      53.141269999999999     51.194350000000007     50.859249999999996
C      49.374169999999999     51.659150000000004     54.562450000000005
C      50.868670000000002     51.764649999999996     54.452149999999996
C      47.292169999999999     47.918550000000003     46.460850000000001
C      46.476070000000000     46.765250000000002     46.533849999999994
C      49.460770000000004     46.085850000000001     50.326749999999997
C      47.956970000000005     48.516350000000010     47.619250000000001
C      46.790370000000003     45.848649999999999     47.695450000000001
C      49.530369999999998     47.517050000000005     49.843350000000008
C      48.483070000000005     45.425750000000001     49.567349999999998
C      48.586269999999999     47.549150000000004     48.524750000000004
C      47.889069999999997     46.450350000000007     48.720750000000002
C      47.403669999999998     48.640450000000008     45.206949999999999
C      46.785570000000000     47.951550000000005     44.052650000000000
C      46.401769999999999     46.577249999999999     44.270150000000001
C      45.606510000000000     46.236750000000008     45.466850000000001
C      47.392069999999997     50.068249999999999     45.276350000000001
C      47.038770000000000     50.732850000000006     43.979750000000003
C      46.391970000000001     48.728349999999999     42.962350000000001
C      48.486969999999999     49.840350000000008     47.282950000000007
C      47.854669999999999     50.736650000000004     46.506250000000001
C      44.261140000000005     45.699249999999999     45.445950000000003
C      43.384889999999999     45.543750000000010     46.776950000000006
C      43.764099999999999     44.034050000000001     47.042350000000006
C      46.066170000000000     48.078650000000003     41.564850000000000
H      47.121770000000005     44.966950000000004     47.209150000000001
H      44.918700000000001     47.803649999999998     41.434750000000001
H      48.696469999999998     50.091250000000009     50.246550000000006
H      51.495470000000005     50.047850000000004     50.112349999999999
H      47.612569999999998     51.197750000000006     53.494250000000001
H      52.645370000000007     50.700550000000000     53.667549999999999
H      50.154069999999997     48.194150000000000     51.933950000000003
H      53.651570000000000     51.084650000000003     49.903650000000006
H      48.754170000000002     52.286549999999998     55.168650000000007
H      51.604669999999999     52.489049999999999     55.203550000000000
H      53.205270000000006     51.939349999999997     51.652049999999996
H      45.791670000000003     45.554650000000002     48.272150000000003
H      50.842270000000006     47.943850000000005     49.473050000000008
H      50.271269999999994     46.009250000000002     50.998650000000005
H      47.976869999999998     44.428150000000009     49.491650000000000
H      46.142969999999998     45.868150000000007     43.480150000000002
H      47.326870000000000     51.986950000000000     44.056249999999999
H      49.332870000000000     49.983550000000001     48.159950000000002
H      47.777570000000004     51.847749999999998     46.545549999999999
H      43.773339999999997     46.271149999999999     47.619549999999997
H      42.348430000000000     45.158450000000009     46.568450000000006
H      43.042400000000001     43.510950000000001     47.738949999999996
H      44.316630000000004     43.920650000000002     47.952050000000007
H      43.521630000000002     43.579850000000000     45.967250000000000
H      46.308470000000000     48.892950000000006     40.796450000000000
H      46.898769999999999     47.238549999999996     41.357250000000001
N      46.627270000000003     49.984050000000003     42.966749999999998
O      43.832010000000004     45.515850000000007     44.367950000000000
