18

C      47.476999999999990     48.129799999999989     48.492399999999996
C      48.612599999999993     47.959899999999998     47.669800000000009
C      46.219000000000001     48.058599999999998     47.662100000000002
C      48.664799999999993     47.519300000000001     46.224700000000006
C      47.486499999999999     48.932600000000001     49.681899999999999
C      49.873799999999996     47.877099999999999     48.426000000000009
C      46.160699999999999     47.514499999999998     46.297700000000006
C      47.466799999999999     47.284799999999997     45.611600000000003
C      48.694799999999994     48.743299999999998     50.353800000000007
C      49.761899999999990     47.943300000000001     49.866100000000003
H      45.196700000000000     48.343299999999992     48.115900000000003
H      49.567799999999998     47.181100000000001     45.770800000000008
H      46.449499999999993     49.281100000000002     50.166500000000006
H      50.803300000000000     47.298999999999999     48.320500000000003
H      45.249199999999995     46.718899999999998     46.418000000000006
H      47.384099999999997     46.906700000000001     44.553600000000003
H      48.668799999999997     49.217199999999998     51.446399999999997
H      50.619999999999997     47.845199999999998     50.555700000000009
