58

C      45.027064999999993     53.831249999999997     49.817799999999998
C      43.682225000000003     53.721050000000005     49.694800000000001
C      48.938765000000011     50.707250000000002     48.110600000000005
C      47.529465000000002     50.656050000000008     47.930300000000003
C      47.880065000000002     42.683549999999997     46.352200000000003
C      49.909865000000003     49.681049999999999     47.721000000000004
C      46.624964999999996     43.339150000000004     46.503399999999999
C      47.037965000000007     49.262950000000004     48.324400000000004
C      48.886365000000005     43.722049999999996     46.519000000000005
C      45.824864999999996     45.468149999999994     47.186500000000009
C      46.196465000000003     46.844049999999996     47.375600000000006
C      50.016365000000000     47.114750000000001     47.357300000000009
C      46.872864999999997     44.714950000000002     46.650800000000004
C      49.532365000000006     48.351050000000001     47.812500000000000
C      48.389965000000004     45.028050000000007     46.578200000000010
C      47.990465000000000     48.244249999999994     48.007100000000008
C      47.615765000000003     47.057649999999995     47.622800000000005
C      48.805765000000001     46.307350000000000     47.176000000000002
C      45.718765000000005     49.012650000000008     47.960800000000006
C      49.568665000000003     52.098250000000007     48.186100000000003
C      48.723665000000004     53.228750000000005     48.293600000000005
C      47.261565000000012     53.022450000000006     48.229700000000008
C      46.679965000000003     51.697050000000004     48.263800000000003
C      45.189065000000006     51.549149999999997     48.120900000000006
C      44.678865000000002     50.038650000000004     48.306700000000006
C      51.237865000000006     50.428049999999999     47.729900000000001
C      51.147665000000011     51.918549999999996     47.885500000000008
C      45.432265000000001     42.494850000000000     46.476300000000009
C      44.401164999999999     45.079149999999998     47.195300000000003
C      51.787264999999998     52.945149999999998     46.887300000000003
C      51.207765000000002     46.743849999999995     46.490900000000003
C      50.389665000000001     43.386750000000006     46.689800000000005
H      45.789665000000007     53.500450000000001     50.620300000000000
H      43.141235000000002     52.748950000000008     49.815700000000007
H      43.309335000000004     54.069249999999997     48.787000000000006
H      48.076865000000005     41.642150000000001     46.435500000000005
H      51.593265000000009     47.724649999999997     45.960700000000003
H      49.274065000000000     54.123549999999994     48.537700000000001
H      44.505565000000004     52.057550000000006     48.799800000000005
H      44.863265000000006     51.898949999999999     47.033200000000008
H      43.571105000000003     49.917550000000006     47.517300000000006
H      44.373865000000002     50.298649999999995     49.447400000000002
H      51.598965000000000     50.197550000000007     46.710300000000004
H      52.115365000000004     49.931950000000001     48.313300000000005
H      51.234064999999994     52.238550000000004     48.905000000000001
H      44.526965000000004     42.967550000000003     46.971700000000006
H      45.035665000000002     42.402850000000001     45.379700000000000
H      45.610765000000001     41.570750000000004     46.943000000000005
H      51.185965000000003     53.417050000000003     45.997800000000005
H      51.386265000000002     45.615849999999995     46.163200000000003
H      52.095765000000007     46.893150000000006     47.418200000000006
H      50.537965000000007     42.328249999999997     46.382700000000000
H      50.511765000000004     43.126149999999996     47.843800000000002
H      51.306665000000002     44.148150000000001     46.648600000000002
N      45.367065000000004     47.883350000000007     47.465900000000005
N      43.219465000000007     45.126850000000005     47.144400000000005
O      52.858764999999998     53.447150000000008     47.158100000000005
S      46.002064999999995     54.429249999999996     48.353800000000007
