18

C      47.785239999999995     47.511999999999986     47.707779999999985
C      48.463740000000001     47.856100000000005     48.904580000000010
C      46.276339999999990     47.608700000000006     47.978800000000007
C      48.064139999999995     49.043900000000001     49.626959999999997
C      48.270640000000000     46.994599999999998     46.485749999999996
C      49.804540000000003     47.261900000000004     49.011330000000001
C      45.730539999999991     48.443599999999996     48.979140000000001
C      46.706739999999996     49.199300000000001     49.705579999999998
C      49.709040000000002     46.839700000000001     46.641459999999995
C      50.530032000000006     47.079000000000001     47.778829999999999
H      45.651740000000004     47.209099999999999     47.247389999999996
H      48.898939999999996     49.548799999999993     50.115589999999997
H      47.636039999999994     46.666500000000006     45.590109999999996
H      50.251161000000010     46.991599999999998     50.064280000000011
H      44.591539999999995     48.457500000000003     49.230639999999994
H      46.347439999999992     49.953499999999998     50.409890000000004
H      50.365612000000013     46.046500000000002     45.957859999999997
H      51.408460000000005     46.596399999999996     47.640760000000000
