5

C      47.973699999999994     47.712299999999992     47.609399999999994
H      48.910900000000005     47.224599999999995     47.259299999999996
H      47.089099999999995     47.433000000000000     47.339399999999998
H      47.879399999999997     47.455799999999996     48.740700000000004
H      47.860799999999998     48.775400000000005     47.332200000000000
