18

C      48.247999999999990     47.786789999999996     47.771099999999990
C      47.983699999999999     48.871960000000001     48.751300000000008
C      49.568100000000015     47.092780000000005     47.974399999999996
C      48.876800000000003     48.907520000000005     49.921399999999998
C      47.829999999999998     47.759580000000000     46.434000000000005
C      46.682800000000000     49.344309999999993     48.466000000000001
C      50.069900000000004     46.746449999999996     49.255000000000003
C      49.840000000000003     47.948889999999992     50.088100000000004
C      46.777600000000007     48.609189999999998     46.129600000000003
C      46.175700000000006     49.417850000000001     47.188700000000004
H      49.880700000000004     46.701120000000003     46.971300000000006
H      48.927599999999998     49.734729999999999     50.651000000000003
H      48.278900000000007     47.119399999999999     45.697700000000005
H      46.131799999999998     49.966539999999995     49.174799999999998
H      50.873400000000004     46.033460000000005     49.314900000000002
H      50.420400000000001     48.261379999999988     50.885600000000004
H      46.220500000000001     48.831999999999994     45.114399999999996
H      45.126599999999996     49.686179999999993     47.071599999999997
