18

C      48.479999999999990     47.906250000000000     47.258499999999998
C      48.490200000000002     47.876549999999995     48.778899999999993
C      48.090200000000010     46.790450000000007     46.490600000000001
C      48.144599999999997     46.600850000000008     49.318499999999986
C      48.633200000000002     49.243750000000006     46.684699999999992
C      48.459400000000002     49.005049999999997     49.524099999999990
C      47.563200000000009     45.752650000000003     47.249799999999993
C      47.712400000000002     45.459550000000007     48.565699999999993
C      48.969100000000012     50.315349999999995     47.580799999999996
C      48.605100000000007     50.274749999999997     48.963499999999996
H      47.782400000000010     46.887850000000000     45.438400000000001
H      47.998500000000007     46.242450000000005     50.467200000000005
H      48.697900000000004     49.326650000000001     45.561199999999999
H      48.056899999999999     48.858049999999992     50.561599999999999
H      46.886899999999997     45.012950000000004     46.755799999999994
H      47.109999999999999     44.658550000000005     49.005700000000004
H      49.113100000000003     51.341449999999995     47.109200000000001
H      48.582999999999998     50.962249999999997     49.762500000000003
