5

C      47.981549999999999     47.784499999999994     47.945649999999993
H      48.674049999999994     47.117800000000003     48.128650000000000
H      47.938649999999996     48.882199999999997     47.604749999999996
H      47.581350000000000     47.284799999999990     47.101050000000001
H      47.325950000000006     47.971499999999992     48.898949999999999
