18

C      48.098949999999995     48.512749999999997     47.514049999999997
C      47.722650000000002     47.045649999999995     47.914650000000002
C      49.379849999999990     48.963149999999999     47.121150000000000
C      48.960949999999997     46.358750000000001     47.978450000000002
C      46.959750000000000     49.368650000000002     47.638550000000002
C      46.484049999999996     46.680149999999998     48.501749999999994
C      50.554249999999996     48.232649999999992     47.469749999999998
C      50.318649999999991     46.890649999999994     47.670350000000006
C      45.673649999999995     48.797349999999994     47.965850000000010
C      45.443349999999995     47.673950000000005     48.630450000000003
H      49.278750000000002     50.249549999999999     46.845350000000003
H      49.227049999999991     45.669449999999998     48.593550000000000
H      47.112650000000002     50.330550000000002     47.278250000000000
H      46.325049999999990     45.805650000000000     49.133749999999999
H      51.588549999999998     48.729849999999999     47.237850000000002
H      51.183549999999997     46.263549999999995     47.886450000000004
H      44.847949999999997     49.679749999999999     47.749549999999999
H      44.411450000000002     47.374250000000004     49.154649999999997
