40

C      47.335749999999990     47.514999999999993     48.262629999999987
C      46.032449999999997     48.089799999999997     48.160369999999993
C      48.203350000000000     49.409199999999998     44.156039999999990
C      48.503950000000003     48.017399999999995     47.628729999999997
C      45.719650000000001     49.049800000000005     46.967289999999998
C      48.840350000000001     48.781999999999996     45.250040000000006
C      46.937049999999999     49.774699999999996     44.681440000000016
C      48.000850000000000     48.756399999999999     46.430189799999994
C      46.789749999999998     49.451999999999998     45.994539999999994
C      47.431349999999995     46.686000000000007     49.468939999999996
C      46.202849999999998     46.353400000000008     50.254239999999989
C      44.939750000000004     46.485699999999994     49.712149999999994
C      44.844350000000006     47.550200000000004     48.793019999999999
C      48.619450000000001     45.965400000000002     49.813589999999998
C      48.660750000000007     45.126800000000003     50.960509999999992
C      47.662850000000006     45.209800000000001     51.891669999999998
C      46.312349999999995     45.525199999999998     51.537809999999993
C      49.814250000000001     46.702500000000001     49.401969999999999
C      49.768349999999998     47.668900000000008     48.331989999999998
C      51.074749999999995     48.153300000000002     47.837989999999998
C      45.998049999999992     50.867300000000000     44.077540000000006
C      51.232649999999992     49.257099999999994     48.627230000000004
C      44.409750000000003     49.160600000000002     46.643907999999996
C      51.469049999999996     50.235500000000002     49.418789999999994
H      48.695849999999993     49.060199999999995     43.180940000000000
H      49.920249999999996     48.664800000000000     45.251540000000013
H      44.010249999999999     46.175200000000004     50.168439999999997
H      43.945650000000001     48.197900000000004     48.702129999999990
H      47.929550000000006     44.675500000000000     52.842059999999996
H      45.488050000000001     45.006200000000000     51.946390000000001
H      50.820350000000005     46.734700000000004     49.774559999999994
H      51.999750000000006     47.350800000000007     47.902159999999995
H      52.518150000000006     50.598900000000000     49.502779999999994
H      44.026849999999996     49.569599999999994     45.785140000000013
H      46.256850000000000     51.389099999999999     43.157940000000004
H      43.481849999999994     48.869100000000003     47.224338999999993
H      50.923650000000009     51.181600000000003     49.361049999999999
H      50.529849999999996     44.887300000000003     50.961459999999995
O      44.871750000000006     51.092100000000002     44.316340000000004
O      49.839750000000009     44.610900000000001     51.389530000000001
