18

C      48.111349999999995     47.322399999999995     47.572599999999994
C      48.127650000000003     48.553400000000011     46.940899999999999
C      49.081249999999997     46.792299999999997     48.450999999999993
C      49.327350000000010     49.371099999999998     47.266499999999994
C      46.937449999999998     46.373500000000007     47.883499999999998
C      46.783749999999998     49.136600000000001     46.788600000000002
C      50.278250000000000     47.483000000000004     48.731499999999997
C      50.400149999999996     48.723100000000002     47.892599999999987
C      45.732950000000002     46.861800000000002     47.389699999999991
C      45.696550000000002     48.236200000000011     46.720100000000002
H      48.874549999999999     45.822000000000003     48.951200000000000
H      49.427149999999997     50.341600000000000     46.884500000000003
H      46.927850000000007     45.658400000000000     48.581699999999998
H      46.594650000000001     50.106700000000004     46.343800000000002
H      50.935550000000006     47.204700000000003     49.656199999999998
H      51.294950000000000     49.285000000000011     48.190199999999990
H      44.705050000000000     46.519300000000001     47.745800000000003
H      44.902749999999997     48.970399999999998     46.533799999999999
