18

C      47.658939999999994     47.987499999999997     48.559249999999992
C      47.884240000000005     48.574199999999998     47.246150000000000
C      46.789340000000003     46.914899999999996     48.811050000000002
C      47.189040000000006     47.997400000000006     46.101149999999997
C      48.318039999999996     48.303199999999997     49.916450000000005
C      49.114740000000005     49.285900000000005     47.257050000000000
C      46.214240000000004     46.334499999999998     47.611350000000002
C      46.435040000000001     46.842999999999996     46.285849999999996
C      49.386640000000000     49.105800000000009     49.650849999999998
C      49.724440000000001     49.763900000000000     48.421050000000001
H      46.358940000000004     46.470100000000009     49.634349999999991
H      47.573040000000006     48.075600000000001     45.131050000000002
H      47.950440000000000     48.125900000000009     50.868949999999998
H      49.427740000000000     49.787100000000002     46.234049999999996
H      45.476860000000002     45.534500000000001     47.660649999999997
H      45.495190000000001     46.275500000000001     45.654750000000000
H      49.809440000000002     49.538400000000003     50.427050000000001
H      50.523139999999998     50.465499999999999     48.235650000000000
