6

C      47.914799999999993     47.802999999999990     47.746099999999991
C      48.886000000000010     48.530000000000001     47.883000000000010
H      46.865499999999997     48.325199999999995     47.329800000000006
H      48.053500000000000     46.559600000000003     48.011099999999999
H      48.805700000000002     49.440399999999997     47.233800000000002
H      49.134500000000003     49.305899999999994     48.766199999999998
