5

C      48.200549999999986     48.103250000000003     47.983799999999995
H      48.557649999999995     48.603349999999999     48.906199999999998
H      47.181849999999997     47.714750000000002     47.861100000000008
H      48.818150000000003     47.179150000000000     48.284599999999998
H      48.114849999999997     48.820850000000000     47.093800000000002
