42

C      48.197549999999985     47.558899999999994     47.367849999999990
C      47.702550000000002     46.620999999999995     48.359849999999994
C      51.579149999999998     47.578699999999998     50.487549999999999
C      49.369450000000001     48.276499999999999     47.686549999999997
C      48.389749999999992     46.411499999999990     49.561149999999998
C      51.533649999999994     48.097399999999993     49.227750000000000
C      50.444850000000002     46.784999999999997     51.077749999999995
C      50.193749999999994     47.762099999999990     48.723649999999992
C      49.580050000000000     46.911299999999997     49.726649999999992
C      47.231049999999996     48.214999999999989     46.402749999999997
C      45.961749999999995     47.465199999999996     46.289649999999995
C      45.960349999999991     46.018999999999991     46.613150000000005
C      46.673850000000002     45.616399999999999     47.787750000000003
C      47.674149999999997     49.314699999999988     45.660749999999993
C      46.371150000000000     49.977099999999993     44.844149999999999
C      45.132449999999992     49.292199999999994     44.728349999999992
C      45.106449999999995     48.009899999999988     45.287549999999996
C      49.924750000000003     49.286299999999983     46.858050000000006
C      49.084449999999990     49.522300000000001     45.705449999999999
C      44.076749999999990     49.858699999999999     43.686949999999996
C      51.092550000000003     45.378000000000000     51.660650000000004
C      51.621849999999995     45.766799999999989     52.644549999999995
C      49.933549999999997     49.846999999999994     44.509850000000000
C      46.608649999999997     50.816800000000001     43.674149999999997
H      52.525250000000000     47.850599999999986     51.057649999999995
H      52.446550000000002     48.633600000000001     48.802750000000003
H      45.717849999999999     45.208199999999991     45.856349999999992
H      46.105750000000000     44.717999999999989     48.521249999999995
H      44.421750000000003     47.140599999999992     45.172650000000004
H      50.795649999999995     49.836799999999997     47.057749999999999
H      46.445149999999998     50.570799999999991     42.585449999999994
H      46.830749999999995     45.550500000000000     50.364750000000001
H      49.789549999999991     47.153899999999993     51.940849999999998
H      50.709049999999991     44.478200000000001     51.348349999999996
H      52.475949999999997     46.416799999999995     52.916250000000005
H      52.083349999999996     44.998199999999997     53.414550000000006
H      49.343850000000003     49.856299999999990     43.452050000000000
H      50.889849999999996     49.273699999999991     44.115349999999992
H      49.888149999999996     50.933699999999988     44.976249999999993
H      47.577449999999999     51.521799999999999     43.475449999999995
O      43.474750000000000     49.878499999999988     42.731349999999992
O      47.726749999999996     45.793599999999998     50.668350000000004
