18

C      48.391599999999997     47.244799999999991     48.044809999999991
C      47.356200000000001     48.339199999999991     48.032280000000000
C      48.887000000000000     46.793799999999990     46.754009999999994
C      47.075299999999999     48.955500000000001     46.653439999999996
C      49.073999999999998     46.848399999999998     49.214020000000005
C      46.770600000000002     48.608099999999993     49.207030000000003
C      48.188100000000006     47.059100000000001     45.578522000000000
C      47.387400000000000     48.177599999999998     45.543225999999997
C      48.214799999999997     47.063899999999990     50.391169999999995
C      47.149299999999997     47.993600000000001     50.451769999999996
H      49.673000000000002     45.988100000000003     46.740839999999999
H      46.536900000000003     50.011899999999997     46.355860000000000
H      49.938599999999994     46.189599999999999     49.356409999999997
H      46.061400000000006     49.444499999999991     49.378569999999996
H      48.439800000000005     46.424599999999998     44.678430000000006
H      46.758799999999994     48.501099999999994     44.738930000000011
H      48.667899999999989     46.589100000000002     51.218679999999992
H      46.360399999999998     48.169499999999999     51.321569999999994
