18

C      48.755749999999992     47.871549999999992     48.280400000000000
C      47.707749999999990     48.163049999999998     47.278599999999997
C      48.745849999999990     46.474150000000002     48.337600000000009
C      47.019449999999992     47.053350000000002     46.640100000000004
C      49.376949999999994     49.018950000000004     48.869600000000005
C      47.057449999999989     49.429549999999992     47.160300000000007
C      48.188249999999996     45.299650000000000     47.555599999999998
C      46.999349999999993     45.704949999999997     46.835500000000010
C      48.861849999999990     50.256450000000001     48.678200000000004
C      47.693149999999989     50.568049999999999     47.843100000000007
H      49.338849999999994     45.926749999999998     49.304400000000001
H      45.998750000000001     47.204949999999997     46.305400000000006
H      50.001249999999999     48.956850000000003     49.694599999999994
H      46.147349999999989     49.733949999999993     46.691299999999998
H      48.510949999999994     44.402450000000002     47.764700000000005
H      46.248249999999999     44.899550000000005     46.524299999999997
H      49.267649999999989     50.966350000000006     49.407200000000003
H      47.401349999999994     51.597549999999998     47.592799999999997
