5

C      47.518149999999991     47.748649999999991     47.731499999999997
C      48.578349999999993     48.421449999999993     47.624400000000001
H      47.461250000000000     46.997850000000000     48.536600000000000
H      46.386350000000000     48.107749999999996     47.463400000000000
O      49.613650000000000     49.002150000000000     47.833199999999998
