18

C      47.997199999999992     48.302614999999989     47.371349999999993
C      47.536700000000003     48.475014999999992     48.822150000000001
C      49.103700000000003     48.728564999999996     46.933650000000000
C      48.569700000000005     49.287864999999989     49.477049999999998
C      47.503500000000003     47.461064999999998     46.306750000000001
C      46.445500000000003     47.703474999999997     49.145750000000000
C      50.080199999999998     49.544964999999998     47.583350000000003
C      49.821399999999997     49.508064999999995     48.958850000000005
C      46.438099999999999     46.713504999999998     46.981450000000002
C      45.951799999999999     46.748204999999999     48.362850000000002
H      50.997199999999999     49.413764999999991     47.014749999999999
H      49.507699999999993     48.466964999999995     45.840849999999996
H      48.446999999999996     49.417864999999999     50.705649999999999
H      47.812800000000003     47.677985000000000     45.294350000000001
H      45.983300000000000     47.975945000000003     50.250250000000001
H      50.417900000000010     49.912865000000004     49.604149999999997
H      46.012599999999999     46.087134999999996     46.196750000000002
H      45.002800000000001     46.462694999999997     48.920449999999995
