37

C      48.553249999999991     48.504649999999998     47.900599999999997
C      48.178950000000000     47.044849999999997     48.115100000000005
C      44.697850000000003     48.721849999999989     45.441100000000006
C      47.656449999999992     49.515850000000000     47.439600000000006
C      47.182350000000000     46.527550000000005     47.318400000000004
C      45.512950000000004     49.715249999999997     46.160400000000003
C      45.079349999999991     47.439250000000001     45.839800000000004
C      46.571649999999991     48.997849999999985     46.552400000000006
C      46.321950000000001     47.603149999999999     46.551300000000005
C      49.625349999999997     49.119450000000001     48.596499999999999
C      50.286649999999995     48.207149999999999     49.491000000000000
C      50.519149999999996     46.694550000000007     49.256700000000002
C      49.159149999999997     46.184150000000002     48.781200000000005
C      49.551649999999995     50.556550000000001     48.999500000000005
C      50.595550000000003     50.995249999999999     49.995100000000001
C      51.487749999999991     50.095650000000006     50.651500000000006
C      51.326049999999995     48.627650000000003     50.259999999999998
C      48.531949999999995     51.418849999999992     48.576400000000000
C      47.507949999999994     50.941850000000002     47.734700000000004
C      46.375450000000001     51.788349999999994     47.160400000000003
C      45.432050000000004     51.093249999999998     46.402799999999999
C      47.217150000000004     45.119550000000004     47.415400000000005
C      48.051649999999995     44.246049999999997     47.897300000000001
C      49.075850000000003     44.844149999999999     48.654200000000010
H      43.769750000000002     48.664850000000001     45.068700000000000
H      44.825649999999996     46.577550000000002     45.419100000000000
H      50.781149999999997     46.373050000000006     50.316200000000002
H      50.806950000000001     51.975049999999996     49.880300000000005
H      52.230249999999998     50.679349999999999     50.931300000000000
H      52.003450000000001     48.023550000000000     50.583000000000006
H      44.631749999999997     51.770150000000001     45.933100000000003
H      46.433250000000001     52.937449999999998     47.048400000000001
H      47.964449999999999     52.501149999999996     48.774400000000000
H      46.386849999999995     44.633049999999997     46.714000000000006
H      47.992049999999992     43.062550000000002     47.481200000000001
H      49.750450000000001     44.178650000000005     49.045400000000001
H      51.391949999999994     46.191550000000007     48.487200000000009
