5

C      48.084949999999999     47.848749999999988     47.847604999999987
H      48.823650000000001     47.525049999999993     47.183974999999997
H      48.565849999999998     48.325649999999996     48.816025000000003
H      47.484949999999998     48.697350000000000     47.336794999999995
H      47.176349999999999     47.302650000000000     47.794494999999991
