18

C      47.945249999999987     48.267949999999999     48.561449999999994
C      48.123849999999997     46.986849999999997     47.961150000000004
C      46.604049999999994     48.646949999999997     48.599150000000002
C      47.014249999999997     46.206449999999997     47.628650000000000
C      48.844149999999992     49.310150000000000     49.045849999999994
C      49.488449999999993     46.730650000000004     47.575450000000004
C      45.535149999999994     47.780049999999996     48.671149999999997
C      45.756149999999998     46.411250000000003     48.307549999999999
C      50.085949999999990     49.128049999999995     48.359850000000002
C      50.350450000000002     47.759350000000005     47.768850000000000
H      46.434049999999992     49.614750000000008     49.040950000000002
H      46.762749999999990     45.864349999999995     46.547249999999998
H      48.694150000000000     50.296950000000002     49.452750000000002
H      49.755149999999993     45.719950000000004     46.918849999999999
H      44.534050000000001     47.904450000000004     49.005250000000004
H      45.061450000000001     45.703049999999998     48.814150000000005
H      50.900950000000002     49.956350000000008     48.528250000000000
H      51.465949999999999     47.348250000000000     47.568449999999999
