7

C      48.841349999999991     48.169799999999988     47.932999999999993
C      47.321050000000000     47.905900000000003     47.824800000000003
H      46.814349999999997     47.358400000000003     46.910699999999999
H      48.872050000000009     48.212299999999999     49.089300000000001
H      47.157049999999998     47.069299999999998     48.726400000000005
H      46.641050000000000     48.859099999999998     47.760700000000000
O      49.358950000000000     48.930700000000002     47.147600000000004
