18

C      48.272799999999989     45.737759999999994     48.663049999999991
C      47.389400000000002     46.660739999999990     48.140849999999993
C      47.833400000000005     47.974469999999997     47.686949999999996
C      49.183500000000002     47.949069999999992     47.152949999999997
C      50.075399999999995     46.843699999999998     47.580149999999996
C      49.665200000000006     45.709519999999998     48.337649999999996
C      47.332900000000002     49.327770000000001     47.360650000000000
C      46.314900000000002     49.922969999999992     47.951549999999997
C      49.881400000000006     49.207569999999990     47.178749999999994
C      45.450399999999995     50.770769999999999     48.272349999999996
H      47.592700000000001     49.617769999999993     46.389449999999997
H      50.515700000000002     44.594250000000002     49.610550000000003
H      47.898400000000002     44.755969999999991     48.985349999999997
H      46.401299999999999     46.314129999999992     48.356649999999995
H      51.262800000000006     46.736710000000002     47.154649999999997
H      44.737199999999994     51.488770000000002     48.505649999999996
O      50.597600000000007     50.158270000000002     47.100149999999999
O      50.318999999999996     44.511229999999998     48.671949999999995
