28

C      46.853259999999992     47.940799999999989     45.680549999999997
C      46.351880000000001     48.354399999999998     47.074349999999995
C      45.210580000000000     49.163199999999989     47.191650000000010
C      50.023609999999998     45.436899999999994     47.162050000000008
C      45.217590000000001     49.870399999999989     48.418149999999997
C      48.713420000000006     45.143499999999989     46.675849999999997
C      50.526150000000001     45.850999999999999     48.368450000000010
C      46.319760000000002     49.930899999999994     49.369550000000004
C      47.832960000000007     46.056100000000001     47.273750000000007
C      48.585830000000009     48.887799999999999     50.140450000000001
C      49.604199999999999     47.870499999999993     49.830950000000001
C      47.317950000000003     49.005600000000001     49.191050000000004
C      49.551650000000002     46.936700000000002     48.823750000000004
C      47.111770000000000     47.995099999999994     48.308050000000009
C      48.132320000000000     46.967699999999994     48.291250000000005
H      46.482819999999997     47.012799999999999     45.363250000000008
H      48.034249999999993     48.137199999999993     45.786550000000005
H      46.285550000000001     48.564599999999999     44.917650000000009
H      44.651440000000001     49.599400000000003     46.385649999999998
H      51.135470000000005     44.447599999999994     46.644350000000003
H      44.382030000000000     50.616199999999992     48.833849999999998
H      48.585160000000002     44.389099999999999     45.945850000000007
H      51.617970000000000     45.829999999999998     48.636550000000000
H      46.835920000000002     45.936399999999992     46.669649999999990
H      50.456830000000004     47.593499999999992     50.611149999999995
H      46.981510000000007     51.610900000000001     50.346449999999990
O      48.604129999999991     49.614699999999999     51.082349999999991
O      46.274180000000001     50.997500000000002     50.245950000000008
