8

C      47.461659999999995     47.843949999999985     48.296779999999991
C      48.598370000000003     48.327449999999999     47.405054000000000
H      46.526809999999998     48.283249999999995     47.576306000000002
H      49.473190000000002     49.001350000000002     47.799554000000001
H      48.743659999999991     47.393050000000002     46.620730000000002
H      47.111999999999995     46.735950000000003     47.812908999999998
H      47.559300000000007     48.029749999999993     49.379269999999998
H      48.221129999999988     49.264049999999997     46.785630000000019
