5

C      48.284349999999989     48.113599999999998     48.091016999999994
H      48.795150000000000     48.604200000000006     48.985654999999994
H      48.613650000000000     47.070800000000006     48.358175000000003
H      47.204850000000000     48.929199999999994     47.997944000000004
H      48.691449999999996     48.203599999999994     47.014345000000006
