21

C      47.818100000000001     47.104499999999994     47.469899999999996
C      48.737699999999990     48.062799999999996     48.154900000000005
C      46.477699999999999     46.877600000000001     47.965000000000003
C      48.192400000000006     48.533500000000004     49.394400000000005
C      48.144599999999997     46.657200000000003     46.178400000000003
C      49.917999999999992     48.810199999999995     47.646200000000000
C      46.697100000000006     48.738700000000001     49.595100000000009
C      46.069900000000004     47.797800000000009     48.801100000000005
C      49.420299999999997     47.209699999999998     45.747600000000006
C      50.201499999999996     48.228200000000001     46.378900000000009
C      46.060900000000004     49.154699999999998     50.935500000000005
H      47.459500000000006     45.853600000000000     45.509800000000006
H      45.814899999999994     46.264200000000002     47.292000000000009
H      50.462299999999999     49.690199999999997     47.883200000000009
H      44.900099999999995     47.662700000000001     48.858300000000007
H      48.845500000000001     49.282300000000006     49.764299999999999
H      49.677599999999998     46.983600000000003     44.647600000000004
H      51.099900000000005     48.608400000000003     45.797000000000004
H      46.540999999999997     50.042299999999997     51.352399999999996
H      46.107699999999994     48.044799999999995     51.307000000000009
H      45.196899999999999     50.146400000000000     50.807400000000008
