60

C      48.530704999999983     48.386299999999991     49.202749999999988
C      47.932914999999994     49.116599999999998     48.061850000000007
C      48.343084999999995     44.379100000000001     46.458050000000000
C      47.321730999999993     44.989500000000000     45.602450000000005
C      48.781844999999997     46.969299999999997     49.123350000000002
C      47.754004999999992     48.534900000000000     46.926749999999998
C      48.804844999999993     45.032400000000003     47.678150000000002
C      47.391034999999995     46.351499999999994     45.696849999999998
C      48.316744999999990     46.371500000000005     47.949749999999995
C      47.708374999999997     47.020999999999994     46.894949999999994
C      48.959494999999997     48.993500000000004     50.383250000000004
C      49.100744999999996     50.387899999999995     50.670349999999999
C      48.419514999999997     51.211099999999995     49.531649999999999
C      47.931444999999997     50.649999999999999     48.370350000000002
C      48.547644999999996     42.932099999999998     46.277550000000005
C      48.113974999999996     42.347400000000000     44.988050000000001
C      47.194468999999991     43.030700000000003     44.149550000000005
C      46.816244999999995     44.366999999999997     44.303950000000000
C      49.853814999999990     48.268499999999996     51.401449999999997
C      50.399494999999995     49.016200000000005     52.467150000000004
C      50.285704999999993     50.374999999999993     52.738650000000007
C      49.258315000000003     50.970400000000005     51.959149999999994
C      49.771404999999994     46.818700000000000     51.467550000000003
C      49.656204999999993     46.143200000000000     50.217950000000002
C      49.891404999999992     44.769100000000002     50.001149999999996
C      49.448744999999995     44.163099999999993     48.735250000000008
C      49.582104999999991     42.270499999999998     47.102149999999995
C      49.907895000000003     42.914700000000003     48.302850000000007
C      48.452054999999994     52.604599999999998     49.644250000000000
C      47.801204999999996     53.251699999999992     48.593450000000004
C      47.503024999999994     52.669499999999992     47.354349999999997
C      47.595464999999997     51.257600000000004     47.150649999999999
C      48.560695000000003     52.115500000000004     52.531149999999997
C      47.572344999999991     52.921799999999998     51.981650000000002
C      45.757964999999992     44.768200000000000     43.805850000000007
C      46.614430999999996     53.729700000000001     51.495149999999995
C      50.352104999999987     43.958199999999998     51.243049999999997
H      46.610806999999994     47.001799999999996     45.139150000000001
H      47.279346999999994     48.991499999999995     46.048150000000007
H      48.745454999999986     41.432800000000000     44.514949999999999
H      46.648959999999995     42.364200000000004     43.356849999999994
H      50.939674999999994     48.258400000000002     53.168549999999996
H      50.543434999999995     50.844400000000000     53.831750000000000
H      50.089454999999994     46.616800000000005     52.579449999999994
H      50.115904999999991     41.400799999999997     46.712550000000007
H      50.725614999999998     42.419599999999996     48.926749999999998
H      48.730564999999991     53.136500000000005     50.517750000000007
H      47.483244999999997     54.283700000000003     48.488349999999997
H      47.190281999999996     50.766299999999994     46.173850000000002
H      49.123834999999993     52.264599999999994     53.442350000000005
H      44.917365000000011     44.119199999999999     43.501450000000006
H      46.561801999999993     52.914700000000003     45.803049999999999
H      46.636616999999994     54.599200000000003     50.734350000000006
H      45.768565000000002     53.303499999999993     51.971450000000004
H      51.082634999999989     44.150100000000002     52.008250000000004
H      50.538574999999987     43.182899999999997     50.511449999999996
H      49.518464999999992     43.207000000000001     51.566550000000007
H      45.553064999999989     46.066600000000001     42.168250000000000
O      45.758064999999995     46.104899999999994     43.100549999999998
O      46.770577999999993     53.484699999999997     46.579949999999997
