18

C      48.470749999999995     47.942594999999997     47.471699999999984
C      47.714749999999995     48.000594999999990     48.784300000000002
C      48.666449999999998     46.772374999999997     46.681500000000000
C      47.229749999999996     46.689805000000007     49.243200000000002
C      48.951449999999994     49.167524999999998     47.007800000000003
C      47.111050000000006     49.202735000000004     49.178100000000001
C      47.849050000000005     45.683954999999997     47.116199999999992
C      47.465350000000001     45.617834999999999     48.533999999999992
C      48.781849999999991     50.362944999999996     47.643700000000010
C      47.614850000000004     50.404044999999996     48.521500000000003
H      46.880250000000004     46.629725000000008     50.409599999999998
H      48.666449999999998     46.947405000000003     45.590400000000002
H      49.550349999999995     49.386705000000006     45.943899999999999
H      46.449650000000005     49.292555000000007     50.062699999999992
H      48.231449999999995     44.627165000000005     47.141199999999998
H      47.314350000000005     44.577155000000005     49.049199999999999
H      49.210049999999995     51.422844999999995     47.581800000000001
H      47.053449999999998     51.224845000000002     48.929400000000001
