5

C      48.233499999999992     47.785849999999989     48.142199999999995
H      47.924099999999996     47.899149999999992     47.111999999999995
H      48.458100000000002     48.784250000000000     48.401100000000000
H      48.886200000000002     47.215750000000000     48.888000000000005
H      47.113799999999998     47.671349999999997     48.571500000000000
