47

C      45.157494999999997     49.090249999999997     46.969849999999987
C      49.590694999999997     47.091150000000006     46.445835999999993
C      47.976894999999999     48.857250000000001     51.210200000000000
C      46.106295000000003     48.270649999999996     46.300891999999997
C      45.385494999999992     49.840150000000001     48.270419999999994
C      48.340294999999998     47.494549999999997     45.871190999999996
C      46.989694999999998     49.649949999999997     50.336339999999993
C      49.665894999999992     47.102049999999998     47.977800000000002
C      48.637095000000002     47.773350000000001     50.360239999999997
C      47.458994999999987     48.158049999999996     46.823349999999998
C      46.679194999999993     49.246350000000000     48.927649999999993
C      48.822794999999985     47.771650000000001     48.889539999999997
C      47.625095000000002     48.357950000000010     48.266299999999994
C      43.928394999999995     49.332349999999998     46.358586999999993
C      43.797294999999991     48.856749999999998     45.073619999999991
C      44.712094999999991     48.144650000000006     44.287920000000000
C      45.906094999999993     47.805749999999996     44.862619999999978
C      46.876795000000001     46.973350000000003     44.191820000000007
C      48.163694999999990     47.496749999999999     44.463819999999998
C      50.421194999999997     46.145249999999997     45.856563999999999
C      51.462094999999991     45.524549999999998     46.681359999999998
C      51.905294999999995     45.774850000000008     47.978469999999987
C      50.896294999999995     46.625549999999997     48.517309999999995
C      48.586394999999996     49.790550000000003     52.244549999999990
C      45.959395000000001     50.779350000000001     50.495749999999994
C      48.757694999999998     46.472349999999999     50.759079999999997
H      45.396095000000003     50.885150000000003     47.972430000000003
H      44.544694999999990     49.553350000000002     48.943509999999989
H      43.294254999999993     50.049849999999999     46.774609999999996
H      43.019705000000002     49.130649999999996     44.532120000000006
H      44.541794999999993     47.942150000000005     43.153819999999996
H      48.995994999999994     47.198250000000009     44.081020000000017
H      50.412594999999996     45.846849999999996     44.755919999999996
H      51.826494999999994     44.794550000000008     45.864955999999999
H      51.231794999999991     47.044350000000001     49.335369999999998
H      46.402194999999992     44.998250000000006     43.514420000000030
H      52.971194999999994     44.292049999999996     47.871189999999999
H      45.708995000000002     51.255249999999997     49.515729999999998
H      47.669195000000002     50.071950000000008     52.846180000000004
H      46.323494999999994     51.707950000000004     50.938599999999994
H      45.007894999999991     50.426650000000002     51.001660000000001
H      48.646194999999992     50.883649999999996     51.799709999999990
H      48.504795000000001     46.078449999999997     51.768539999999987
H      48.360894999999999     45.774050000000010     49.985810000000001
H      49.771495000000002     49.552950000000003     52.436310000000006
O      46.585295000000002     45.975749999999998     43.225119999999997
O      52.980294999999998     45.154150000000008     48.475869999999993
