18

C      47.950079999999993     47.834449999999990     48.612099999999998
C      47.428950000000000     48.356349999999992     47.322199999999995
C      48.309680000000000     46.460149999999999     48.973699999999994
C      47.228760000000001     47.347549999999998     46.430300000000003
C      48.450479999999999     48.925049999999985     49.430099999999996
C      47.630699999999997     49.550849999999997     46.821700000000007
C      47.907380000000003     45.527549999999991     48.014399999999995
C      47.166350000000001     45.992149999999995     46.948599999999999
C      48.548779999999994     50.183649999999986     48.784700000000001
C      48.354079999999996     50.475849999999994     47.455699999999993
H      49.238979999999998     46.342749999999995     49.615099999999998
H      46.761020000000002     47.700450000000004     45.462000000000003
H      48.783680000000004     48.550349999999995     50.537999999999997
H      47.186679999999996     49.939149999999998     45.916200000000003
H      48.264580000000009     44.547550000000001     48.214699999999993
H      47.156810000000000     45.527549999999991     46.058800000000005
H      48.656579999999991     51.057749999999999     49.397599999999997
H      48.486879999999999     51.452449999999999     47.031999999999996
