18

C      47.395999999999994     47.929999999999986     48.193349999999995
C      48.745899999999992     47.562100000000001     47.701749999999990
C      47.221000000000004     49.364699999999999     47.975749999999991
C      49.615200000000002     47.901600000000002     46.576250000000002
C      46.554500000000004     47.066599999999994     48.987349999999992
C      49.394400000000005     46.510899999999992     48.471249999999998
C      48.170999999999999     49.973999999999990     47.071849999999998
C      49.239300000000000     49.250599999999991     46.231349999999992
C      47.289400000000001     46.022700000000000     49.474949999999993
C      48.696700000000007     45.841700000000003     49.398949999999999
H      46.557900000000004     49.869199999999992     48.611649999999997
H      50.306299999999993     47.320200000000000     46.081450000000004
H      45.545299999999997     47.340299999999999     49.389550000000000
H      50.454700000000003     46.348100000000002     48.003950000000003
H      48.395200000000003     51.043700000000001     46.782550000000001
H      50.152000000000001     50.042999999999992     46.020650000000003
H      46.839100000000002     45.275499999999994     49.979349999999997
H      49.355300000000000     44.956299999999999     49.723450000000000
