18

C      47.621699999999990     47.940099999999994     48.502049999999997
C      48.283700000000003     48.992599999999996     47.549850000000006
C      46.606800000000000     48.680599999999998     49.279749999999993
C      47.440000000000005     49.991199999999992     46.915750000000003
C      48.314199999999992     46.777999999999992     48.988349999999997
C      49.592099999999995     48.507800000000003     47.405649999999994
C      45.747400000000006     49.556200000000004     48.538149999999987
C      46.085199999999993     49.954700000000003     47.141149999999996
C      49.555299999999995     46.420299999999997     48.418449999999993
C      50.327999999999996     47.401700000000005     47.880949999999999
H      46.295999999999999     48.360399999999998     50.123450000000005
H      47.660000000000004     50.356399999999994     45.876549999999995
H      47.641100000000002     46.370000000000005     49.705449999999999
H      50.127000000000002     49.296399999999991     46.894549999999995
H      44.570299999999996     49.910600000000002     48.985049999999987
H      45.527700000000003     50.518100000000004     46.495949999999993
H      50.174100000000003     45.481899999999996     48.677449999999993
H      51.429700000000004     47.388999999999996     47.862949999999998
