18

C      48.053599999999989     48.129399999999997     48.614049999999992
C      47.734300000000005     47.692300000000003     47.227550000000001
C      49.392099999999999     48.746200000000002     48.806549999999994
C      48.871899999999997     47.725999999999999     46.353249999999996
C      47.142600000000002     48.267200000000003     49.744750000000003
C      46.470799999999997     47.427099999999996     46.922449999999998
C      50.453299999999999     48.423500000000004     47.957249999999995
C      50.199799999999996     48.177000000000007     46.528950000000002
C      45.810800000000000     47.814300000000003     49.378850000000000
C      45.683599999999998     47.784300000000002     47.968650000000004
H      49.804100000000005     48.920299999999997     49.838549999999998
H      48.692499999999995     47.704499999999996     45.265650000000001
H      47.391700000000000     48.419499999999999     50.734349999999999
H      46.106799999999993     47.079700000000003     45.913649999999997
H      51.489000000000004     48.471900000000005     48.326050000000002
H      50.917000000000002     48.102100000000007     45.613149999999997
H      45.002600000000001     47.588999999999999     50.053149999999995
H      44.510999999999996     47.805400000000006     48.002850000000002
