47

C      48.838749999999990     50.562249999999992     47.336699999999993
C      47.457549999999998     50.805249999999994     47.157000000000004
C      47.530050000000003     45.784849999999999     46.937800000000003
C      46.074050000000000     46.204149999999998     47.408700000000003
C      49.124850000000009     49.118650000000002     47.230700000000006
C      46.377350000000007     49.929850000000002     47.375999999999998
C      48.395550000000000     46.870950000000001     46.930399999999999
C      45.604250000000008     47.583750000000002     47.409399999999998
C      48.009150000000005     48.248449999999998     46.824199999999998
C      46.674549999999996     48.635249999999999     47.212800000000001
C      49.731350000000006     51.585550000000005     47.841600000000007
C      49.139250000000004     52.754449999999999     48.595999999999997
C      47.314549999999997     52.372750000000003     47.504100000000001
C      47.970450000000000     44.369850000000000     46.826700000000002
C      47.133150000000001     43.330249999999999     46.439799999999998
C      45.833749999999995     43.751250000000006     46.732000000000006
C      45.306650000000005     44.952649999999998     47.146700000000003
C      51.031750000000002     51.104250000000000     48.300199999999997
C      52.083449999999999     51.960050000000003     49.002500000000005
C      51.413550000000015     53.139749999999999     49.585200000000007
C      49.999350000000007     53.223950000000002     49.538100000000007
C      51.148049999999998     49.631149999999998     48.472600000000007
C      50.396950000000004     48.660650000000004     47.671799999999998
C      49.828150000000008     46.529150000000001     47.084000000000003
C      49.516750000000002     44.143050000000002     46.797699999999999
C      50.414450000000002     45.258749999999999     47.113300000000002
C      44.003749999999997     45.473549999999996     46.679899999999996
C      49.952950000000001     43.064950000000003     46.008000000000003
C      51.886449999999996     44.787849999999999     47.082799999999999
H      45.413750000000007     50.377250000000004     47.585500000000003
H      44.543149999999997     47.686650000000000     47.716400000000000
H      46.398150000000001     52.701149999999998     47.164900000000003
H      47.471050000000005     42.346049999999998     46.094799999999999
H      45.033050000000003     42.985750000000003     46.393200000000000
H      53.087649999999996     52.128049999999995     48.526100000000007
H      52.199450000000013     53.385849999999998     50.455900000000007
H      49.632350000000002     53.653950000000002     50.559400000000004
H      51.689550000000011     48.835749999999997     48.949000000000005
H      50.991450000000000     42.804150000000000     46.026900000000005
H      44.009950000000003     45.448150000000005     45.594000000000001
H      52.041849999999997     43.736550000000001     47.251800000000003
H      49.339849999999998     42.546450000000000     45.440599999999996
H      52.344850000000008     45.130050000000004     47.877800000000001
H      52.255350000000007     45.263950000000001     45.930600000000005
N      48.030850000000001     53.273249999999997     48.121199999999995
N      50.658749999999998     47.402149999999999     47.581600000000002
O      42.912350000000004     45.458750000000002     47.194200000000002
