18

C      48.332149999999999     47.284749999999995     47.947949999999992
C      47.561149999999998     48.613250000000001     48.063549999999992
C      48.794350000000009     46.466050000000003     48.931649999999991
C      47.870550000000009     49.045150000000007     49.336749999999995
C      48.678150000000002     47.069850000000002     46.578549999999993
C      46.984150000000000     49.370750000000001     47.060450000000003
C      48.663950000000000     46.862949999999998     50.252650000000003
C      48.276550000000000     48.142049999999998     50.359549999999999
C      48.127849999999995     47.743750000000006     45.450149999999994
C      47.213250000000002     48.785150000000002     45.762749999999997
H      49.398650000000004     45.615049999999997     48.726749999999996
H      47.387850000000000     49.960049999999995     49.773449999999997
H      49.526849999999996     46.303650000000005     46.763750000000002
H      46.868449999999996     50.384950000000003     47.183149999999998
H      49.055149999999998     46.238849999999999     51.201549999999997
H      48.253349999999998     48.309449999999998     51.535849999999996
H      48.532749999999993     47.477050000000006     44.464150000000004
H      46.473150000000004     48.696849999999998     44.913049999999998
