18

C      48.161299999999983     47.560199999999995     47.942549999999990
C      47.164999999999999     48.551299999999998     47.700149999999994
C      48.169699999999999     46.706899999999990     49.134249999999994
C      46.152799999999992     48.781399999999991     48.746049999999997
C      49.246199999999995     46.911999999999992     47.185050000000004
C      47.952899999999993     49.386599999999987     46.842050000000000
C      47.256200000000000     47.058300000000003     50.106849999999994
C      46.446499999999993     48.197099999999992     50.033249999999995
C      49.680000000000000     47.821199999999990     46.227249999999998
C      49.085199999999993     49.051299999999998     45.873850000000004
H      49.051799999999993     45.609700000000004     49.080249999999992
H      45.445000000000000     49.593000000000004     48.680149999999998
H      49.775599999999990     46.054599999999994     47.351649999999992
H      47.365599999999993     50.390299999999996     46.741550000000004
H      46.949399999999990     46.317399999999992     50.885750000000002
H      45.721100000000000     48.484700000000004     50.791250000000005
H      50.555000000000000     47.532899999999998     45.620649999999998
H      49.267099999999992     49.965999999999994     45.114249999999998
