6

C      48.383499999999991     48.538300000000000     47.830549999999995
C      47.614699999999999     47.422300000000007     47.939549999999997
H      49.390999999999998     48.248800000000003     48.478549999999998
H      48.013900000000000     46.477400000000003     48.363050000000001
H      48.109099999999998     49.522599999999997     47.615150000000000
H      46.609000000000002     47.472999999999999     47.521450000000002
