18

C      48.141849999999984     48.786049999999996     47.851399999999984
C      47.974149999999995     47.397050000000000     48.480500000000006
C      48.915849999999992     49.218550000000008     46.670800000000000
C      48.741749999999996     46.412550000000003     47.826599999999999
C      48.157249999999991     49.920950000000005     48.631399999999999
C      47.460449999999994     47.182050000000004     49.808999999999997
C      49.250950000000003     47.933350000000004     46.106499999999997
C      49.328450000000004     46.569150000000000     46.596699999999998
C      47.050950000000000     49.720450000000000     49.576700000000002
C      46.853749999999991     48.375650000000000     50.088000000000008
H      48.928049999999999     50.286850000000001     46.092900000000000
H      48.753149999999991     45.249549999999999     48.322000000000003
H      48.223950000000002     50.750450000000001     48.149500000000003
H      47.373350000000002     46.231050000000003     50.356499999999997
H      49.274349999999998     48.116450000000000     45.090599999999995
H      49.791449999999998     45.696350000000002     45.933499999999995
H      46.929749999999999     50.539450000000002     50.243700000000004
H      46.208550000000002     48.164650000000002     50.909400000000005
