18

C      48.746049999999997     47.253199999999993     48.029849999999996
C      48.247949999999996     48.396000000000008     47.250050000000009
C      49.922950000000007     47.373200000000004     48.865850000000002
C      49.036149999999999     49.548099999999998     47.220050000000008
C      48.049749999999996     46.041899999999998     47.992150000000002
C      46.826550000000005     48.172899999999991     46.703550000000000
C      50.493050000000004     48.666400000000003     48.983350000000009
C      50.203049999999998     49.760100000000001     48.025550000000003
C      46.598850000000006     45.873100000000001     47.708350000000003
C      46.114349999999995     47.016900000000000     47.079550000000005
H      45.770950000000006     45.100000000000001     47.928150000000009
H      50.291249999999998     46.675400000000003     49.819650000000003
H      48.713749999999997     50.398499999999991     46.468150000000001
H      46.231349999999999     48.857499999999995     46.093550000000000
H      50.937750000000001     49.112400000000001     49.906450000000000
H      49.778349999999996     50.899999999999999     48.358550000000001
H      48.372350000000004     45.217800000000004     48.605950000000000
H      45.062249999999999     46.888399999999997     46.506650000000000
