28

C      48.045499999999990     48.753639999999990     47.649949999999997
C      47.990400000000008     47.512889999999999     46.844149999999999
C      45.765299999999996     46.129910000000002     50.721149999999994
C      47.747000000000000     48.742179999999998     49.026550000000000
C      47.173000000000002     46.405079999999998     47.487750000000005
C      46.650900000000007     47.233330000000002     50.876350000000002
C      47.230800000000002     47.558950000000003     49.569649999999996
C      46.832099999999997     46.343389999999999     48.854550000000003
C      49.145099999999999     49.648220000000002     47.442750000000004
C      49.576200000000014     49.385799999999996     45.979150000000004
C      48.496100000000013     47.417459999999998     45.574050000000000
C      48.118300000000005     49.839800000000004     49.873949999999994
C      49.182800000000000     50.676929999999992     49.580250000000007
C      46.563400000000001     45.406820000000003     46.535950000000000
C      46.916600000000003     45.516269999999999     45.130150000000000
C      48.048200000000008     46.329830000000001     44.774249999999995
C      49.835900000000009     50.486319999999999     48.396850000000001
H      45.189099999999996     45.783619999999999     51.555949999999996
H      47.116000000000000     47.398800000000001     51.918949999999995
H      47.891800000000003     49.900869999999998     50.982050000000001
H      45.555199999999999     44.644410000000001     46.647149999999996
H      46.725899999999996     44.782850000000003     44.325450000000004
H      48.681399999999996     45.722430000000003     44.081050000000005
H      49.546000000000006     51.355589999999999     50.400850000000005
H      50.810900000000004     51.035969999999999     48.057149999999993
N      46.004599999999996     45.631540000000001     49.530249999999995
N      49.244299999999996     48.481000000000002     45.130350000000007
O      50.098300000000009     50.384259999999998     45.559250000000006
