51

C      48.931499999999993     48.155499999999996     44.871899999999997
C      49.884699999999995     47.423000000000002     45.808200000000006
C      48.467500000000001     49.053800000000003     53.473000000000006
C      48.024299999999997     49.215600000000002     45.363199999999999
C      47.460200000000000     49.857700000000001     53.068400000000004
C      49.774499999999996     47.853800000000007     47.118600000000008
C      46.745699999999999     50.030300000000011     50.369999999999997
C      46.562599999999996     49.519100000000009     47.727800000000009
C      49.443700000000007     48.703699999999998     50.056000000000004
C      47.628599999999999     49.665100000000002     51.491600000000005
C      48.768000000000001     48.846100000000007     51.363800000000005
C      47.905900000000003     49.430400000000006     46.744100000000010
C      47.178300000000000     49.581699999999998     49.084499999999998
C      48.974400000000003     48.998800000000003     47.567300000000010
C      48.521799999999999     49.129800000000003     48.979000000000006
C      50.626999999999995     47.313200000000002     48.210900000000002
C      50.393000000000001     47.733800000000002     49.476600000000005
C      49.088700000000003     47.638199999999998     43.614700000000006
C      49.913199999999996     46.622399999999999     43.152999999999999
C      50.740200000000002     45.978099999999998     44.130100000000006
C      50.667200000000001     46.184200000000004     45.511100000000006
C      51.293599999999998     45.344999999999999     46.605799999999995
C      51.171199999999999     46.057800000000000     47.829200000000007
C      47.131799999999998     49.006500000000003     43.000000000000007
C      47.384500000000003     50.165100000000010     44.321600000000004
C      48.455599999999997     48.440500000000000     42.322400000000002
C      46.538499999999999     50.800500000000000     53.509400000000007
C      44.086999999999996     51.018400000000000     50.800000000000004
C      45.417099999999998     50.697400000000002     50.710900000000002
C      51.741799999999998     44.968600000000002     43.605800000000002
H      48.531199999999998     48.643699999999995     54.603400000000001
H      46.016500000000001     50.520300000000006     47.302000000000000
H      45.737600000000000     48.604100000000003     47.594200000000008
H      50.594400000000007     46.826400000000007     50.146800000000006
H      49.782100000000000     45.936300000000003     42.008700000000005
H      51.529899999999998     44.423200000000001     46.492799999999995
H      51.492100000000008     45.556899999999999     48.829200000000007
H      46.594000000000001     48.039100000000005     43.498600000000003
H      46.754700000000000     49.478300000000004     42.103900000000003
H      46.469499999999996     50.355400000000003     44.877100000000006
H      48.315100000000001     47.788000000000004     41.396599999999999
H      46.541800000000002     50.890799999999999     54.565300000000001
H      45.484000000000002     51.143600000000006     53.157200000000003
H      43.592399999999998     51.796300000000002     51.274500000000003
H      43.847499999999997     49.830299999999994     50.659700000000008
H      51.038700000000006     44.239600000000003     42.920700000000004
H      52.407600000000002     44.203699999999998     44.203800000000008
H      47.795800000000000     51.172800000000002     44.015800000000006
H      52.358400000000003     45.505900000000004     42.754000000000005
H      49.260599999999997     49.421700000000001     42.288800000000002
N      49.224899999999998     48.578400000000002     52.524899999999995
