18

C      47.354499999999994     48.392159999999990     48.466399999999993
C      47.978999999999999     47.134490000000000     48.182800000000007
C      46.784899999999993     49.444599999999994     47.648299999999999
C      47.266099999999994     46.674009999999996     47.000500000000009
C      48.149299999999997     49.023099999999999     49.520299999999999
C      48.938000000000002     46.435310000000001     48.980000000000011
C      46.396199999999993     49.074069999999992     46.370300000000007
C      46.377299999999991     47.644089999999991     46.343499999999999
C      49.192799999999991     48.490729999999999     50.236899999999999
C      49.415099999999995     47.003119999999996     50.121600000000008
H      46.703699999999998     50.562020000000004     48.034200000000006
H      47.579499999999996     45.630030000000005     46.794000000000004
H      48.445799999999991     50.229439999999997     49.616900000000008
H      49.378299999999996     45.437979999999996     48.446500000000007
H      46.051800000000000     49.876140000000007     45.762700000000002
H      46.184699999999992     47.273740000000004     45.245500000000000
H      49.873199999999997     49.089659999999995     50.690900000000006
H      49.948200000000000     46.376179999999991     50.754500000000000
