5

C      47.843049999999991     47.843649999999997     47.805399999999992
H      48.097250000000010     47.664550000000006     48.856499999999997
H      47.397550000000003     47.217950000000002     47.143500000000003
H      47.228450000000002     48.782049999999998     48.017100000000013
H      48.771549999999998     48.312749999999994     47.481099999999998
