48

C      50.660849999999996     48.634749999999990     45.371749999999992
C      51.144849999999998     44.153349999999996     49.266249999999999
C      49.778849999999998     43.672049999999999     49.609450000000010
C      45.304650000000002     51.174149999999997     50.223250000000007
C      49.880850000000002     51.281250000000000     45.837550000000007
C      44.961450000000006     49.739750000000001     50.348650000000006
C      46.553750000000001     51.378049999999988     49.571849999999998
C      49.990150000000007     49.795749999999998     46.203850000000017
C      50.821750000000002     45.111550000000001     48.279750000000007
C      48.598250000000000     44.258949999999999     49.127850000000009
C      50.918849999999999     47.170850000000002     46.068950000000015
C      45.375350000000005     47.421549999999996     50.003050000000002
C      46.187150000000003     46.366650000000000     49.437350000000009
C      48.077550000000002     50.428750000000008     47.864450000000005
C      45.740650000000002     48.740249999999989     49.898949999999999
C      47.322049999999997     50.261849999999995     48.969850000000008
C      48.917750000000005     49.473549999999989     47.092950000000002
C      49.674550000000004     45.836849999999998     47.827050000000014
C      48.350150000000006     45.498649999999998     48.389949999999999
C      49.792850000000001     47.087550000000000     47.073750000000004
C      47.296650000000007     46.494050000000001     48.480850000000018
C      47.068850000000005     48.856949999999998     49.053650000000005
C      48.927050000000001     48.070650000000001     47.569050000000004
C      47.591250000000002     47.899249999999995     48.193950000000001
C      44.420850000000002     52.278050000000007     50.855150000000009
C      50.422350000000002     51.614649999999997     44.627350000000007
C      46.827649999999998     52.873750000000001     49.498150000000010
H      48.784950000000002     42.377749999999999     50.294050000000013
H      46.433450000000001     53.622250000000001     50.291150000000002
H      49.665650000000007     48.344749999999998     44.630650000000003
H      51.576450000000001     48.918149999999997     44.929150000000007
H      52.037050000000001     47.114149999999995     46.614150000000009
H      52.152149999999999     43.755749999999999     49.462150000000008
H      49.844749999999998     52.011349999999993     46.664650000000009
H      43.847850000000001     49.553750000000001     50.224350000000001
H      51.675350000000002     45.675849999999997     48.001850000000005
H      47.518450000000001     44.172750000000001     49.687550000000002
H      50.865650000000002     46.400749999999995     45.306150000000002
H      44.860050000000001     46.884149999999998     50.791449999999998
H      46.238550000000004     45.250349999999997     49.676150000000007
H      47.798350000000006     51.269750000000002     47.347050000000010
H      44.245250000000006     51.842949999999988     52.015349999999998
H      50.563949999999998     52.700450000000004     44.361050000000006
H      51.131350000000005     50.902550000000005     43.984650000000002
H      46.027950000000004     53.421250000000001     48.905950000000004
H      47.869149999999998     52.801649999999995     49.083150000000018
O      44.358150000000002     53.410650000000004     50.633650000000003
O      49.627150000000007     42.399749999999997     50.148049999999998
