18

C      48.658169999999984     48.383049999999990     49.018649999999994
C      48.570019999999992     47.641149999999996     47.715049999999998
C      47.659299999999995     48.201250000000002     49.997549999999997
C      48.251199999999997     46.250450000000001     47.776350000000001
C      48.958899999999993     49.816749999999999     48.729850000000006
C      49.049639999999997     47.985650000000007     46.370150000000002
C      46.940736999999991     46.908649999999994     49.772849999999998
C      47.271009999999997     46.014849999999996     48.673150000000000
C      49.419579999999989     50.142650000000003     47.407150000000009
C      49.463879999999996     49.243049999999997     46.336250000000000
H      47.256309999999992     49.093450000000004     50.677450000000000
H      48.215449999999997     45.516549999999995     46.987749999999998
H      49.289369999999991     50.682749999999999     49.286149999999999
H      48.966299999999997     47.390550000000005     45.352150000000002
H      45.845070000000000     46.760649999999998     50.495349999999995
H      46.649933999999995     45.024649999999994     48.678249999999998
H      50.154930000000000     50.975350000000006     47.693050000000007
H      49.721539999999997     49.494550000000004     45.322550000000000
