18

C      47.484529999999985     47.260700000000000     48.257099999999987
C      48.319869999999995     48.358000000000011     47.581999999999994
C      47.804289999999995     45.971400000000010     47.798999999999992
C      49.252169999999992     48.155400000000007     46.570200000000000
C      46.672639999999994     47.661900000000010     49.354699999999994
C      48.141000000000005     49.618900000000004     48.003299999999996
C      48.535889999999995     45.760500000000000     46.583200000000005
C      49.314359999999994     46.859100000000005     46.000399999999999
C      46.546989999999994     48.970100000000009     49.888599999999997
C      47.067999999999998     49.984200000000008     48.950500000000005
H      47.525310000000005     45.144700000000007     48.301199999999994
H      49.685469999999995     49.093500000000013     46.319599999999994
H      45.946109999999997     46.937400000000004     49.640400000000000
H      48.659589999999994     50.593700000000005     47.669499999999999
H      48.394719999999992     44.963400000000000     45.873499999999993
H      50.133240000000001     47.185400000000008     45.302999999999997
H      45.866759999999999     49.159700000000008     50.697000000000003
H      46.835870000000000     51.036600000000000     49.216099999999997
