18

C      48.554999999999993     47.610299999999995     48.180650000000000
C      47.290700000000001     48.221099999999993     48.113750000000010
C      49.240899999999996     47.568299999999994     49.487450000000010
C      46.702799999999996     48.710700000000003     49.341149999999999
C      49.312299999999993     47.186499999999995     47.025550000000010
C      46.735200000000006     48.275999999999996     46.859050000000011
C      48.929699999999997     48.522099999999995     50.447749999999999
C      47.553299999999993     48.962599999999995     50.301550000000006
C      48.519599999999997     47.039699999999996     45.890550000000005
C      47.220900000000000     47.554899999999989     45.725850000000008
H      50.068299999999994     46.741699999999994     49.563150000000007
H      45.683800000000005     49.252700000000004     49.703850000000003
H      50.316199999999995     46.991999999999990     46.755949999999999
H      45.771500000000003     48.879899999999992     46.695750000000004
H      49.281899999999993     49.175699999999992     51.320149999999998
H      47.428299999999993     49.261499999999998     51.340149999999994
H      48.905500000000004     46.738500000000002     44.878150000000005
H      46.746399999999994     47.392499999999998     44.659850000000006
