18

C      47.285929999999993     48.031099999999995     47.363999999999990
C      48.344630000000009     47.046000000000006     47.591999999999999
C      46.021630000000002     47.668899999999994     47.962999999999994
C      48.435130000000001     45.832400000000007     48.391499999999994
C      47.605730000000008     49.084900000000005     46.630399999999995
C      49.508871000000013     47.442899999999995     46.884299999999996
C      46.135030000000000     46.776300000000006     49.096900000000005
C      47.381129999999999     45.965999999999994     49.256299999999996
C      48.864930000000001     49.501099999999994     46.024100000000004
C      49.784047000000001     48.416200000000003     45.919300000000007
H      45.184030000000007     48.155999999999992     47.624799999999993
H      49.309994000000003     45.393799999999999     48.697500000000005
H      46.986530000000002     49.964399999999998     46.480000000000004
H      50.144170000000003     46.545299999999997     46.780699999999996
H      45.147829999999999     46.630899999999997     49.498599999999996
H      47.268730000000005     45.348200000000006     50.264700000000005
H      49.244230000000002     50.651799999999994     45.936199999999999
H      50.852170000000001     48.487700000000004     45.735299999999995
