7

C      48.335899999999995     47.907999999999994     48.389849999999996
C      47.410199999999996     48.032700000000006     47.183550000000004
H      47.851800000000004     47.348900000000000     49.556350000000002
H      47.884000000000007     48.883200000000002     46.443649999999998
H      46.853299999999997     47.116799999999998     46.673949999999998
H      46.573100000000004     48.655600000000007     47.465150000000001
O      49.426899999999996     48.434700000000007     48.301250000000003
