9

C      48.796299999999988     47.284150000000004     48.723699999999994
C      47.424799999999998     48.624549999999999     47.290600000000005
C      47.509899999999995     47.709550000000007     48.457500000000003
H      49.435700000000004     47.698149999999998     47.794300000000000
H      49.116599999999998     46.743150000000000     49.545999999999999
H      46.564299999999996     49.256850000000000     47.609300000000012
H      48.229699999999994     49.235750000000010     46.837000000000010
H      47.060399999999994     48.100549999999998     46.454000000000001
H      46.596599999999995     47.536349999999999     49.140500000000010
