18

C      47.462750000000000     47.914529999999992     47.720749999999988
C      48.840849999999989     47.628360000000001     47.962449999999990
C      47.368250000000003     49.201149999999998     46.940449999999998
C      49.888649999999998     48.132710000000003     47.157049999999998
C      46.346450000000004     47.440530000000003     48.606249999999996
C      49.103650000000002     46.829039999999999     49.016450000000006
C      48.509850000000000     49.735680000000002     46.315950000000001
C      49.889150000000001     49.215509999999995     46.244450000000001
C      46.500450000000001     46.656050000000000     49.659549999999996
C      47.885549999999995     46.136910000000000     49.504549999999995
H      46.406750000000002     49.846780000000003     46.653349999999996
H      50.805849999999992     47.594799999999999     47.524249999999995
H      45.194150000000008     47.770290000000003     48.522049999999993
H      50.088250000000002     46.742500000000000     49.651449999999997
H      48.209249999999997     50.686309999999999     46.036249999999995
H      50.632449999999992     49.843620000000001     45.761049999999997
H      45.558250000000001     46.400440000000003     50.238950000000003
H      47.878650000000007     45.313690000000001     50.167450000000002
