18

C      48.084539999999990     47.228899999999996     48.079244999999993
C      47.800150000000002     48.678300000000000     47.900945000000000
C      48.054240000000000     46.628300000000003     49.459944999999991
C      48.313589999999998     49.570900000000002     48.941344999999998
C      48.186600000000006     46.550400000000003     46.881855000000002
C      47.866410000000002     49.311600000000006     46.616574999999997
C      48.089880000000001     47.590300000000006     50.513745000000000
C      48.313960000000002     48.922600000000010     50.180544999999995
C      47.828060000000001     47.085900000000002     45.626995000000001
C      47.536630000000002     48.458500000000001     45.494534999999999
H      48.470260000000003     45.593300000000006     49.650745000000001
H      48.247970000000002     50.518999999999998     48.749345000000005
H      48.002310000000001     45.481000000000002     46.813135000000003
H      47.561920000000001     50.351800000000004     46.245975000000001
H      47.599579999999996     47.169800000000002     51.391745000000000
H      48.372059999999998     49.633699999999997     51.061844999999998
H      47.529739999999997     46.248899999999999     45.129554999999996
H      47.537219999999998     48.854899999999994     44.608255000000000
