48

C      47.234099999999991     46.839599999999990     47.826299999999996
C      47.256599999999999     47.302199999999992     49.240600000000001
C      50.871200000000002     49.674799999999998     46.591300000000004
C      51.104999999999990     50.184499999999993     48.020900000000005
C      48.407199999999996     47.089700000000001     47.144500000000001
C      48.335099999999997     48.154999999999994     49.479299999999995
C      50.011499999999998     50.010799999999996     48.909500000000001
C      49.372999999999998     47.998100000000001     47.461100000000002
C      49.468599999999995     48.670600000000000     48.743600000000001
C      45.854599999999998     46.418699999999994     47.406700000000001
C      45.134199999999993     45.657099999999993     48.365300000000005
C      45.232299999999995     46.119999999999997     49.719399999999993
C      46.194299999999998     47.039299999999997     50.184699999999999
C      51.671999999999997     50.193599999999996     45.515799999999999
C      52.907499999999999     50.761400000000002     45.974400000000003
C      53.216399999999993     51.232099999999996     47.343900000000005
C      52.252499999999998     50.951099999999997     48.378300000000010
C      44.997199999999992     46.501799999999996     46.287199999999999
C      43.772399999999998     45.706600000000002     46.229399999999998
C      43.082599999999999     44.942000000000000     47.312000000000005
C      43.600200000000001     45.281599999999997     48.567399999999992
C      52.403399999999991     51.545999999999999     49.725500000000011
C      51.494799999999998     50.615699999999997     50.728799999999993
C      49.938999999999993     50.575300000000006     50.280300000000011
C      41.601799999999997     44.525100000000002     47.380700000000004
C      54.411199999999994     50.946099999999994     45.362099999999998
H      54.746600000000001     52.144999999999989     45.291000000000004
H      48.156700000000001     48.776699999999998     50.436599999999999
H      44.714599999999997     45.816499999999998     50.664000000000001
H      46.063099999999999     47.740699999999997     50.962599999999995
H      51.343199999999996     50.092499999999994     44.418399999999998
H      53.672699999999999     52.223199999999999     47.571200000000005
H      45.254999999999995     47.194399999999995     45.632200000000005
H      43.538599999999995     45.734299999999998     45.047499999999999
H      43.124199999999995     45.152299999999997     49.545900000000003
H      51.626399999999990     51.186000000000000     51.678899999999999
H      52.161799999999999     49.657800000000002     50.955800000000011
H      48.600499999999997     45.650500000000001     45.360100000000003
H      49.219699999999989     51.365400000000001     49.968100000000007
H      48.999499999999998     49.869199999999999     50.906900000000007
H      40.826999999999998     45.362000000000002     47.267700000000005
H      41.114500000000000     43.776800000000001     46.682300000000005
H      41.212499999999999     43.888900000000000     48.302000000000000
H      55.173000000000002     50.474299999999992     46.039700000000003
H      54.120599999999996     50.611799999999995     44.321100000000001
N      50.018100000000004     48.760500000000000     46.456200000000003
O      53.405199999999994     52.065000000000005     50.123400000000004
O      48.274699999999996     46.392299999999999     45.851500000000001
