18

C      47.137649999999994     47.508299999999991     48.284349999999989
C      48.498250000000006     47.729699999999994     47.692149999999991
C      47.014249999999997     46.716399999999993     49.399149999999999
C      49.615850000000002     47.059500000000000     48.220649999999999
C      46.121749999999999     48.477800000000002     47.901750000000000
C      48.312750000000001     48.141800000000003     46.276450000000004
C      48.184450000000005     46.322800000000001     50.053249999999998
C      49.521650000000001     46.601200000000006     49.593950000000000
C      46.109649999999995     49.126999999999995     46.651049999999991
C      47.359749999999998     49.123199999999997     45.887750000000004
H      46.070050000000002     46.851799999999997     49.990949999999991
H      50.694750000000006     47.039900000000003     47.704149999999991
H      45.305249999999994     48.884700000000009     48.621450000000003
H      49.026350000000001     47.367000000000004     45.613350000000004
H      48.404850000000003     46.353600000000000     51.063150000000000
H      50.188049999999997     46.036900000000003     50.021549999999998
H      45.516349999999996     49.963099999999997     46.434049999999992
H      47.539350000000006     49.687400000000011     44.936850000000000
