6

C      47.484099999999984     48.041099999999993     48.667699999999989
C      48.716299999999997     48.078400000000002     47.918300000000002
H      46.450499999999998     48.701800000000006     48.562600000000003
H      47.205399999999990     47.151200000000003     49.141700000000000
H      48.931199999999997     47.570700000000002     46.858300000000000
H      49.549500000000002     48.848799999999997     47.947000000000003
