18

C      48.512099999999997     47.456264999999995     48.285049999999991
C      47.276000000000003     48.205804999999998     48.839550000000003
C      48.538600000000002     47.278845000000004     46.834249999999997
C      46.948500000000003     49.359525000000005     48.052549999999997
C      49.066299999999998     46.554344999999998     49.144049999999993
C      47.218200000000003     48.244444999999999     50.214749999999995
C      47.898200000000003     48.181235000000001     45.970050000000001
C      47.390000000000001     49.240185000000011     46.701449999999994
C      48.567300000000003     46.586845000000004     50.465450000000004
C      47.235700000000001     46.952795000000002     50.827950000000001
H      49.038799999999995     46.377524999999999     46.491349999999997
H      46.506100000000004     50.160835000000006     48.541349999999994
H      49.690899999999999     45.640315000000001     48.996150000000000
H      46.309100000000001     48.716594999999998     50.600149999999999
H      48.075400000000002     48.149685000000005     44.784850000000006
H      47.268000000000001     50.359684999999999     46.126249999999999
H      48.896000000000001     45.870744999999999     51.070949999999996
H      46.362300000000005     46.452325000000002     51.215149999999994
