18

C      47.173949999999991     47.590899999999991     47.647489999999991
C      47.620249999999999     48.834099999999999     48.476080000000003
C      47.848350000000003     47.442699999999995     46.341130000000000
C      48.595750000000002     49.777700000000003     47.927000000000000
C      46.567250000000001     46.546699999999994     48.384449999999994
C      47.420749999999991     49.150600000000004     49.791670000000003
C      48.839949999999995     48.488099999999996     45.984150000000000
C      49.337150000000001     49.514800000000001     46.831849999999996
C      46.162350000000004     47.026599999999995     49.622710000000005
C      46.674950000000003     48.131700000000002     50.421349999999997
H      47.747049999999994     46.429200000000002     46.188279999999999
H      48.813049999999997     50.425000000000004     48.669050000000006
H      46.275950000000002     45.574999999999996     47.873439999999995
H      47.973950000000009     49.842700000000001     50.435800000000000
H      49.362450000000003     48.312999999999995     44.999670000000002
H      50.435049999999997     50.053699999999999     46.525749999999995
H      45.564950000000003     46.188600000000001     50.312069999999999
H      45.931350000000002     48.597199999999994     51.000329999999998
