18

C      48.196149999999989     47.629049999999992     46.992749999999994
C      47.789449999999995     47.819049999999997     48.409849999999999
C      47.578749999999999     48.457649999999994     46.051549999999999
C      46.424849999999999     48.047649999999997     48.547249999999998
C      49.381350000000005     46.834150000000001     46.883449999999996
C      48.426249999999989     47.457450000000001     49.626450000000006
C      46.328550000000000     49.031150000000004     46.155049999999996
C      45.773150000000001     48.680850000000000     47.396149999999992
C      50.239649999999990     46.610549999999996     47.941450000000003
C      49.845749999999995     46.932049999999997     49.328249999999997
H      48.247949999999996     48.577049999999993     45.281050000000000
H      45.650349999999996     48.242249999999999     49.519750000000002
H      49.781950000000002     46.636949999999999     45.945349999999998
H      48.050550000000001     47.620649999999998     50.718950000000000
H      45.878549999999997     49.977550000000001     45.631650000000000
H      44.740749999999998     48.683349999999997     47.480350000000001
H      51.259250000000002     46.022449999999999     47.769450000000006
H      50.474150000000002     46.800150000000002     50.204049999999995
