18

C      48.403549999999996     48.424049999999994     48.419449999999998
C      48.545749999999998     47.463649999999994     47.295450000000002
C      48.122749999999996     48.051650000000002     49.814949999999996
C      48.631249999999994     45.995749999999994     47.511749999999992
C      48.352549999999994     49.780750000000005     48.064849999999993
C      48.187749999999994     47.981249999999996     45.953350000000000
C      48.632549999999995     46.754849999999998     49.971149999999994
C      48.765050000000002     45.757349999999995     48.848649999999992
C      48.233949999999993     50.271549999999998     46.721549999999993
C      47.841650000000001     49.338249999999995     45.706850000000003
H      47.737750000000005     48.605650000000004     50.621650000000002
H      48.892849999999996     45.435949999999998     46.549350000000004
H      48.255549999999999     50.608250000000005     48.719049999999996
H      47.762150000000005     47.205850000000005     45.367249999999999
H      48.495850000000004     46.461149999999996     51.020449999999997
H      48.873649999999998     44.641650000000006     49.129949999999994
H      48.089649999999992     51.358349999999994     46.716750000000005
H      47.107150000000004     49.648549999999993     44.979550000000003
