6

C      47.605949999999993     48.191649999999989     48.001900000000006
H      49.413249999999998     48.223849999999999     47.433400000000006
H      47.670049999999996     47.168949999999995     48.413200000000003
H      46.586750000000002     47.884149999999998     47.606999999999999
H      47.133149999999993     48.818949999999994     48.760899999999992
O      48.523649999999996     48.831050000000005     47.239100000000008
