18

C      47.928199999999990     47.242949999999993     48.439099999999996
C      47.929200000000009     48.514350000000000     47.862200000000001
C      46.879700000000000     46.316850000000002     47.995899999999992
C      46.698700000000002     48.905650000000001     47.389499999999998
C      49.257800000000003     46.868850000000002     48.848799999999997
C      48.885599999999997     49.592850000000006     47.849699999999999
C      45.684899999999999     46.648150000000001     47.337299999999999
C      45.628000000000000     48.031350000000010     46.986800000000002
C      50.337999999999994     47.822749999999999     49.030400000000000
C      50.022300000000001     49.193850000000005     48.586399999999998
H      47.320700000000002     45.368350000000000     47.896500000000003
H      46.742099999999994     50.033149999999999     47.069800000000001
H      49.789500000000004     45.918950000000002     48.644300000000001
H      48.738600000000005     50.631650000000000     47.315100000000001
H      44.893799999999999     45.804850000000002     46.959099999999992
H      44.931200000000004     48.424849999999999     46.253500000000003
H      51.106200000000001     47.305450000000000     49.746499999999997
H      50.783600000000007     49.862450000000003     48.846000000000004
