38

C      48.079199999999993     48.032224999999997     48.534499999999994
C      48.754199999999997     49.389185000000005     48.856099999999998
C      44.642200000000003     50.544775000000001     50.451899999999995
C      46.707899999999995     48.040495000000000     48.915099999999995
C      44.763499999999993     49.348784999999999     49.729399999999998
C      45.990600000000001     51.215974999999993     50.298600000000008
C      46.082800000000006     49.279164999999999     49.300100000000000
C      46.845299999999995     50.502165000000012     49.415899999999993
C      48.727800000000002     46.921185000000001     47.777200000000008
C      49.838200000000001     47.380165000000005     46.967299999999994
C      50.368399999999994     48.684345000000000     47.235299999999995
C      49.941299999999998     49.577135000000006     48.120599999999996
C      48.363500000000002     45.584175000000002     47.417100000000005
C      49.254199999999997     44.780505000000005     46.932199999999995
C      50.629700000000000     45.072445000000002     47.134699999999995
C      50.941599999999994     46.431105000000002     46.704400000000007
C      46.002499999999998     46.671155000000006     49.186199999999999
C      46.734999999999999     45.376905000000001     47.182199999999995
C      46.353799999999993     45.972705000000005     46.011799999999994
C      50.625600000000006     50.968835000000006     48.259900000000002
H      51.227900000000005     50.786405000000009     47.288399999999996
H      43.577200000000005     50.906275000000001     50.703699999999998
H      44.076899999999995     48.499535000000002     49.606400000000008
H      45.880399999999995     52.339784999999999     50.116000000000000
H      51.246799999999993     48.998625000000004     46.551500000000004
H      48.871700000000004     43.660215000000001     46.444800000000001
H      51.915599999999998     46.779685000000001     46.542400000000001
H      45.349199999999996     46.757435000000001     50.042299999999997
H      45.272099999999995     46.459385000000005     48.379800000000003
H      46.264300000000006     45.037895000000006     48.194900000000004
H      52.422799999999995     44.520885000000000     46.675399999999996
H      45.622699999999995     46.580565000000000     45.296300000000002
H      47.182500000000005     46.356885000000005     45.471900000000005
H      46.695200000000000     45.966355000000000     49.518699999999995
H      49.954800000000006     51.734585000000003     48.001099999999994
H      51.060800000000000     51.093555000000002     49.260700000000000
N      48.183199999999999     50.484665000000000     49.059600000000003
O      51.515100000000004     44.084904999999999     46.943899999999999
