18

C      47.779649999999990     47.742799999999988     48.574799999999996
C      48.119650000000007     48.074099999999987     47.299899999999994
C      47.566450000000003     48.824699999999993     49.528300000000002
C      48.613150000000005     49.451599999999985     46.951999999999998
C      47.980549999999994     46.271399999999986     48.902799999999999
C      48.189849999999993     47.034499999999994     46.273899999999998
C      47.581249999999997     50.253099999999989     49.103200000000001
C      48.403850000000006     50.411399999999986     47.938400000000001
C      48.730850000000004     45.544899999999984     47.973100000000002
C      48.810050000000004     45.844499999999996     46.560000000000002
H      47.443049999999999     48.765399999999985     50.736999999999995
H      49.209550000000007     49.926199999999994     46.063699999999997
H      48.112650000000002     45.830899999999986     49.841999999999999
H      47.990549999999999     47.287999999999997     45.263000000000005
H      46.790449999999993     51.019599999999997     49.299800000000005
H      48.691649999999996     51.498800000000003     47.969700000000003
H      49.116749999999996     44.501199999999997     47.787400000000005
H      48.976650000000006     45.141199999999984     45.734099999999998
