8

C      47.430849999999992     48.566499999999991     48.338749999999997
C      47.916250000000005     47.563000000000002     47.342150000000004
H      46.901049999999998     49.479300000000002     48.056850000000004
H      48.295050000000003     49.240899999999989     48.632649999999998
H      46.974649999999997     48.100400000000000     49.379249999999999
H      49.098950000000002     47.529499999999999     47.093750000000000
H      47.515250000000009     46.520699999999998     47.960250000000002
H      47.201549999999997     47.833700000000000     46.620750000000001
