5

C      47.718649999999997     47.953949999999992     47.695389999999996
H      47.364449999999991     47.984950000000005     48.817360000000001
H      47.293350000000004     46.943350000000002     47.182639999999999
H      47.951749999999990     49.056649999999998     47.508340000000004
H      48.706649999999996     47.649549999999998     47.961700000000008
