18

C      48.478629999999995     48.479099999999995     47.612549999999985
C      47.410719999999998     47.588399999999993     48.042449999999995
C      49.591240000000006     47.879700000000000     46.916149999999995
C      47.639969999999998     46.170199999999994     47.732849999999992
C      48.350429999999996     49.797699999999992     48.068449999999991
C      46.050989999999999     48.067999999999998     48.402449999999995
C      49.905840000000005     46.523600000000002     46.836250000000000
C      48.756220000000006     45.696100000000001     47.012449999999994
C      47.290979999999998     50.253599999999992     48.851250000000000
C      46.351930000000003     49.163899999999998     49.229749999999989
H      50.376939999999998     48.574799999999996     46.374449999999989
H      46.883780000000002     45.411099999999990     47.754749999999994
H      49.054889999999993     50.592199999999991     47.772749999999995
H      45.318959999999997     47.371399999999994     48.803849999999990
H      50.681040000000003     46.476100000000002     46.048150000000000
H      48.422130000000003     44.710999999999999     46.608249999999991
H      47.014620000000001     51.289000000000001     49.148049999999991
H      45.594459999999998     49.214599999999990     49.951850000000000
