41

C      48.054279999999991     47.000049999999987     47.472449999999988
C      46.751080000000002     46.864650000000005     46.850049999999996
C      45.981480000000005     49.904750000000000     50.156149999999997
C      48.016279999999995     47.314050000000002     48.818849999999998
C      45.468180000000004     47.382250000000006     47.196849999999998
C      46.589480000000009     48.625650000000000     50.643649999999994
C      45.114680000000007     49.510749999999994     49.144250000000000
C      46.707480000000004     48.036549999999998     49.319149999999993
C      45.572180000000003     48.311749999999996     48.410349999999994
C      49.290080000000003     46.690249999999999     46.782150000000001
C      49.235180000000000     46.440649999999998     45.454250000000002
C      48.008679999999998     46.030549999999998     44.751850000000005
C      46.831080000000000     46.056350000000002     45.594250000000002
C      50.500280000000004     47.331449999999997     47.429349999999999
C      51.664780000000007     47.268549999999998     46.652649999999994
C      51.712580000000003     46.683749999999996     45.339849999999998
C      50.404980000000009     46.734550000000006     44.591449999999995
C      50.377180000000010     47.916649999999997     48.607649999999992
C      49.157880000000006     48.041750000000000     49.260949999999994
C      49.002580000000009     48.865050000000004     50.534649999999999
C      47.768180000000001     48.389550000000007     51.480149999999995
C      44.298280000000005     46.769650000000006     46.595550000000003
C      44.391480000000001     46.146350000000005     45.343350000000001
C      45.679180000000002     45.876550000000002     44.833349999999996
C      51.801280000000006     48.394950000000001     49.271850000000001
H      45.563479999999998     50.540550000000003     50.825949999999992
H      44.021680000000003     49.375449999999994     48.915049999999994
H      48.079580000000007     45.459449999999997     43.769549999999995
H      52.572580000000002     47.817749999999997     47.002749999999992
H      52.595180000000013     46.630050000000004     44.925150000000002
H      48.890280000000004     50.026149999999994     50.323750000000004
H      49.929280000000006     48.759650000000001     51.168750000000003
H      47.901080000000007     47.401350000000001     52.223749999999995
H      47.284480000000002     48.973250000000000     52.458349999999996
H      43.347319999999996     46.931649999999998     46.952749999999995
H      43.587750000000000     45.650650000000006     44.670649999999995
H      45.794179999999997     45.851149999999997     43.780950000000004
H      52.652680000000004     48.129849999999998     48.573049999999995
H      51.787380000000013     49.531650000000006     49.626850000000005
H      52.028080000000003     48.132749999999994     50.430149999999998
O      51.002580000000009     46.813350000000007     43.541650000000004
