22

C      48.981299999999990     49.851599999999998     46.919199999999996
C      47.781400000000005     48.103600000000000     48.249500000000012
C      48.064200000000000     46.704999999999998     48.266000000000005
C      48.628700000000009     49.383900000000004     48.623699999999999
C      49.527500000000003     46.350400000000000     48.665300000000002
C      46.773099999999999     48.843800000000002     47.615800000000000
C      47.207000000000008     46.091000000000001     47.342500000000001
C      49.943700000000007     48.962699999999998     49.183300000000003
C      50.189000000000007     47.551500000000004     49.287599999999998
C      45.634500000000003     48.016500000000001     47.225700000000003
C      45.945400000000006     46.676299999999998     46.839600000000004
H      48.106500000000011     49.457200000000000     46.219300000000004
H      49.143799999999999     50.994000000000000     46.725700000000003
H      50.124200000000002     49.192999999999998     46.656100000000002
H      48.243800000000007     50.110100000000003     49.151600000000002
H      50.067800000000005     45.407700000000006     48.209400000000002
H      46.787900000000008     49.926800000000000     47.398399999999995
H      47.383099999999999     45.006000000000000     47.356900000000010
H      50.305400000000006     49.838999999999999     49.780699999999996
H      51.327900000000000     47.494399999999999     49.720900000000000
H      44.672100000000000     48.515900000000002     46.906400000000005
H      45.172400000000010     45.884000000000000     46.622599999999998
