5

C      48.050449999999991     47.812199999999990     47.793299999999995
H      47.124049999999997     47.342900000000000     47.733199999999997
H      48.875950000000003     47.123800000000003     47.127499999999998
H      47.706049999999998     48.876199999999997     47.616000000000000
H      48.223149999999997     47.397899999999993     48.872500000000002
