18

C      48.135699999999986     48.238149999999990     47.292599999999993
C      48.095899999999993     47.799849999999999     48.698799999999999
C      48.162500000000001     47.224349999999994     46.356699999999996
C      48.365599999999993     46.498650000000005     48.923200000000001
C      48.357999999999997     49.640750000000004     46.924999999999997
C      47.887799999999991     48.899250000000002     49.652800000000006
C      47.805999999999990     45.874949999999991     46.834000000000003
C      48.341099999999990     45.493950000000005     48.015899999999995
C      48.050300000000000     50.512350000000005     47.955100000000009
C      47.743999999999993     50.194749999999992     49.408999999999999
H      48.162199999999991     47.536349999999992     45.129899999999999
H      48.622199999999999     46.429049999999997     50.028700000000001
H      48.775900000000000     49.972649999999994     45.959299999999999
H      47.670600000000000     48.464949999999995     50.870100000000001
H      47.224100000000000     45.179049999999997     46.214500000000001
H      48.503200000000000     44.432650000000002     48.285599999999995
H      48.124599999999994     51.567349999999998     47.918399999999998
H      47.383099999999992     50.884650000000001     50.117899999999999
