18

C      47.552504999999996     47.768204999999995     47.420699999999989
C      48.409285000000004     48.397031000000005     48.442499999999995
C      47.904175000000002     47.859604999999995     46.036099999999998
C      49.723054999999995     48.646473000000007     48.297199999999997
C      46.211140999999998     47.364004999999999     47.739899999999992
C      47.958454999999994     48.638508999999999     49.768399999999986
C      49.295105000000000     48.160604999999997     45.809399999999997
C      50.138804999999998     48.579751999999992     46.936999999999998
C      45.672875000000019     47.777704999999990     48.986099999999993
C      46.590625000000003     48.462389999999999     49.912599999999998
H      47.506975000000004     47.492105000000002     45.073299999999996
H      50.263955000000003     49.071690000000011     48.988899999999987
H      45.451775000000012     46.777904999999997     47.138899999999992
H      48.666544999999992     49.222095000000003     50.486599999999996
H      49.700245000000002     48.016204999999992     44.846199999999996
H      51.211925000000001     48.781117000000002     46.982199999999992
H      44.788074999999999     47.105804999999997     49.283299999999997
H      46.302720999999998     48.664116000000000     51.153800000000004
