18

C      47.996049999999997     48.713899999999988     48.311749999999996
C      47.863149999999997     47.231300000000005     47.733750000000001
C      48.772050000000000     48.969600000000000     49.451250000000002
C      49.024049999999995     46.382900000000006     47.744750000000003
C      47.119949999999996     49.361000000000004     47.301949999999998
C      47.265350000000005     46.764300000000006     46.554050000000004
C      49.249950000000005     47.624399999999994     49.934350000000002
C      49.676349999999992     46.856099999999998     48.940150000000003
C      46.185349999999993     49.017799999999994     46.363950000000003
C      46.369650000000000     47.679800000000000     45.945149999999998
H      48.467250000000000     49.823099999999997     50.087550000000007
H      49.099650000000004     45.521000000000001     47.035550000000001
H      47.133949999999992     50.478999999999999     47.162050000000001
H      47.831749999999992     45.958699999999993     45.989249999999998
H      49.554749999999991     47.532499999999999     51.041150000000002
H      50.351149999999997     46.149000000000001     49.101450000000000
H      45.648850000000003     49.772199999999998     45.764050000000005
H      45.972149999999992     47.133899999999997     44.958849999999998
