69

C      44.813879999999990     47.197699999999990     51.671349999999983
C      51.869320000000002     47.325600000000009     51.222049999999996
C      45.665120000000002     48.231999999999999     51.036349999999999
C      51.341719999999995     47.818200000000004     49.977249999999998
C      45.416719999999998     46.085000000000008     52.185249999999996
C      51.334819999999993     46.108400000000003     51.687349999999995
C      47.039319999999996     48.029100000000000     50.567849999999993
C      49.836219999999997     47.735700000000008     50.092449999999999
C      47.655419999999992     45.262700000000009     52.919449999999998
C      48.980019999999996     44.919300000000007     52.427149999999997
C      46.895119999999991     46.026000000000010     52.041950000000000
C      49.883319999999998     45.909500000000008     51.813249999999996
C      47.716719999999995     46.844600000000000     51.089249999999993
C      49.125119999999995     46.991900000000001     50.989549999999994
C      47.548220000000001     48.645000000000010     49.346049999999991
C      48.969920000000002     48.500300000000010     49.191850000000002
C      43.413469999999997     47.568800000000010     52.170749999999998
C      43.054020000000001     48.860700000000008     51.599249999999998
C      43.771050000000002     49.693200000000004     50.697949999999992
C      44.903549999999996     49.171400000000006     50.261849999999995
C      45.272320000000001     49.551800000000000     48.826250000000002
C      46.474419999999995     49.086600000000004     48.428950000000000
C      44.692790000000002     45.316400000000002     53.306049999999999
C      43.123790000000000     45.459200000000010     53.281349999999989
C      42.870280000000001     46.944600000000008     53.346249999999998
C      51.829219999999992     48.562300000000008     48.772449999999992
C      50.834519999999998     48.897000000000006     47.867849999999990
C      49.503720000000001     48.835700000000003     47.873949999999994
C      51.500819999999997     49.895800000000008     46.804149999999993
C      53.269520000000000     49.224400000000003     48.803749999999994
C      44.167879999999997     49.489300000000000     47.785150000000002
C      48.794719999999998     49.562500000000000     44.075049999999990
C      50.100819999999999     49.404899999999998     44.558250000000001
C      48.452019999999997     48.522400000000005     43.105949999999993
C      50.985320000000002     48.368800000000007     44.047550000000001
C      47.751620000000003     50.208800000000011     44.804149999999993
C      50.616320000000002     50.212900000000005     45.674250000000001
C      49.260520000000000     47.484099999999998     42.497450000000001
C      50.597519999999989     47.442400000000006     43.181150000000002
C      48.369619999999998     51.116600000000005     45.831449999999990
C      49.749620000000007     51.233000000000004     46.217349999999996
H      53.103819999999999     47.388400000000004     51.388249999999999
H      52.077719999999999     45.718500000000006     52.268549999999991
H      47.300719999999998     44.455100000000002     53.654349999999994
H      49.293319999999994     43.857500000000002     52.592050000000000
H      42.205590000000001     49.401899999999998     51.938350000000000
H      43.158420000000000     50.569400000000002     50.223149999999990
H      46.746620000000000     49.466300000000004     47.473149999999990
H      45.369619999999998     45.337500000000006     54.316850000000002
H      42.763709999999996     45.165000000000006     54.363950000000003
H      42.463670000000000     45.531599999999997     52.217050000000000
H      44.579769999999996     44.257700000000000     53.070349999999991
H      48.624520000000004     49.220399999999998     47.205950000000001
H      52.129220000000004     50.707700000000003     47.442049999999995
H      54.052920000000000     49.085400000000007     49.505049999999997
H      53.941320000000005     48.712500000000006     48.140850000000000
H      52.803219999999996     50.502400000000009     48.532150000000001
H      44.769430000000000     48.819500000000005     46.840049999999991
H      43.687190000000001     48.539400000000001     48.400350000000003
H      43.824820000000003     50.624400000000009     47.683949999999996
H      41.947080000000000     47.441699999999997     53.614350000000002
H      47.625219999999999     48.633499999999998     42.447149999999993
H      52.039519999999996     47.819600000000008     44.398049999999998
H      46.617220000000003     50.285000000000011     44.358249999999998
H      52.441819999999993     49.542700000000011     46.305149999999998
H      49.309320000000000     46.737000000000009     41.636049999999997
H      51.274619999999999     46.705100000000002     42.638049999999993
H      47.522320000000001     51.507400000000004     46.345849999999999
H      49.951920000000001     52.142499999999998     46.660950000000000
