18

C      47.520949999999992     47.277099999999990     47.998399999999990
C      47.493249999999996     48.667299999999997     48.408299999999990
C      47.327050000000000     46.248400000000004     48.985899999999994
C      48.199950000000001     49.050899999999999     49.596399999999996
C      47.413350000000001     46.986599999999996     46.568700000000000
C      47.421250000000001     49.671599999999998     47.292400000000001
C      47.565349999999995     46.703199999999995     50.417399999999994
C      48.375650000000000     47.864599999999996     50.493199999999995
C      47.528350000000003     47.966800000000006     45.629100000000001
C      47.655450000000002     49.365600000000001     45.909699999999994
H      46.788150000000002     45.280500000000004     48.802399999999999
H      49.211849999999998     49.758600000000001     49.631200000000000
H      47.016149999999996     45.987000000000009     46.302799999999998
H      47.856249999999989     50.719499999999996     47.718299999999999
H      47.454149999999998     45.960599999999999     51.350299999999997
H      48.862449999999995     47.978400000000008     51.437300000000000
H      47.429749999999999     47.803200000000004     44.562700000000000
H      47.475749999999998     50.147200000000012     44.903900000000000
