18

C      47.176169999999999     48.157100000000000     47.548530000000000
C      48.309999999999988     48.671400000000006     48.344240000000006
C      46.762450000000001     49.015500000000003     46.357640000000004
C      49.386929999999992     49.273299999999992     47.582050000000002
C      46.417419999999993     47.241000000000000     48.304470000000002
C      48.809749999999994     48.052900000000008     49.557620000000007
C      47.883189999999999     49.374099999999999     45.551200000000001
C      49.107140000000001     49.502700000000004     46.278880000000008
C      46.682000000000002     46.979399999999998     49.666570000000000
C      47.869499999999988     47.603800000000007     50.352380000000004
H      45.846969999999999     48.824300000000008     45.831870000000002
H      50.459429999999998     48.881599999999992     47.590589999999999
H      45.540570000000002     46.636300000000006     48.078290000000003
H      49.606529999999992     48.547499999999999     49.860890000000005
H      47.706189999999992     49.772899999999993     44.560780000000001
H      49.894130000000004     49.916799999999995     45.663300000000007
H      46.175699999999992     46.083200000000005     50.023479999999999
H      47.937989999999999     47.445500000000010     51.439219999999999
