44

C      47.873549999999994     50.659749999999988     49.362450000000003
C      46.748649999999998     50.150949999999995     50.354350000000004
C      50.178150000000002     46.724850000000004     50.197950000000006
C      48.998350000000016     45.954549999999998     50.656850000000006
C      49.179550000000006     50.136550000000000     49.651150000000015
C      46.841149999999999     48.901349999999994     50.993449999999996
C      50.341049999999996     48.158950000000004     50.235749999999996
C      47.806250000000006     46.691549999999992     51.061950000000003
C      49.126950000000008     48.813749999999999     49.975750000000005
C      47.946450000000013     48.077050000000000     50.716049999999996
C      47.548249999999996     50.946550000000002     47.990450000000010
C      46.111350000000002     51.135549999999995     47.669150000000009
C      45.129750000000001     51.087850000000003     48.678050000000006
C      45.456850000000003     50.696150000000003     49.908349999999999
C      51.172049999999999     45.937049999999999     49.410350000000008
C      51.651049999999998     44.603650000000002     49.650550000000010
C      50.810850000000002     44.036950000000004     50.715750000000014
C      49.568450000000013     44.741249999999994     50.834050000000005
C      48.279650000000004     50.730150000000009     46.746750000000006
C      47.858450000000005     50.309150000000002     45.524750000000004
C      46.320949999999996     50.558250000000001     45.383350000000007
C      45.880250000000004     51.619050000000001     46.197250000000004
C      51.905349999999999     46.875150000000005     48.483650000000004
C      45.714849999999998     49.701650000000001     44.709750000000007
C      44.274349999999998     51.744950000000003     45.999150000000007
H      50.170349999999999     50.660049999999998     49.283050000000003
H      51.290850000000006     48.595349999999996     50.003450000000001
H      46.937350000000009     46.408950000000004     51.731850000000009
H      44.060249999999996     51.512150000000005     48.203950000000006
H      44.819050000000004     50.413550000000001     50.765350000000005
H      52.427650000000000     44.177750000000003     49.010950000000008
H      50.905550000000005     43.173050000000003     50.552450000000007
H      49.201350000000005     44.012749999999997     51.700250000000004
H      49.310850000000002     50.771150000000006     46.554550000000006
H      48.513550000000009     49.852649999999997     44.804250000000003
H      46.579750000000004     52.467449999999999     46.083350000000003
H      44.866950000000003     48.071050000000000     51.331050000000005
H      46.620249999999999     49.354550000000003     44.117850000000004
H      44.939450000000008     50.173950000000005     44.139650000000003
H      43.572350000000000     51.067149999999998     46.445250000000009
H      44.190750000000008     51.700850000000003     44.870950000000008
H      44.148049999999998     52.826949999999997     46.264850000000010
O      52.271450000000002     47.767949999999999     47.810050000000004
O      45.726349999999996     48.471249999999998     51.882149999999996
