18

C      48.766070999999990     48.410599999999995     47.914299999999990
C      47.475250000000010     47.763399999999990     48.095599999999990
C      49.549849999999992     47.489899999999992     47.177599999999998
C      47.062150000000003     46.703599999999994     47.264000000000003
C      49.191293000000002     49.430199999999999     48.844799999999999
C      46.497650000000021     48.448399999999992     48.828600000000009
C      49.195246999999995     46.256799999999998     46.487000000000002
C      47.859750000000005     45.902900000000002     46.442700000000002
C      48.237450000000010     50.248499999999993     49.420999999999992
C      46.813649999999981     49.623300000000000     49.374000000000002
H      50.602749999999993     47.745599999999996     47.190500000000000
H      46.092249999999993     46.444199999999995     47.410400000000003
H      50.072709999999987     49.771099999999990     49.238900000000001
H      45.397250000000007     48.102899999999991     48.979100000000003
H      50.074559999999998     45.558499999999995     46.098700000000001
H      47.487850000000002     44.772700000000000     46.037999999999997
H      48.386470799999998     51.227300000000000     49.962000000000003
H      46.207350000000019     50.352800000000002     49.928199999999990
