18

C      47.412099999999995     48.022799999999989     48.226449999999993
C      48.691399999999994     48.234699999999997     47.498549999999994
C      47.080800000000004     49.008499999999998     49.235749999999996
C      49.366199999999999     49.465799999999994     47.548150000000000
C      46.829599999999999     46.717799999999997     48.011350000000000
C      49.240800000000000     47.231999999999999     46.584550000000000
C      47.895600000000002     50.144299999999994     49.415350000000004
C      49.074099999999994     50.298799999999993     48.510649999999998
C      47.352699999999999     45.684599999999996     47.224649999999997
C      48.577199999999998     46.001099999999994     46.541849999999997
H      46.317399999999999     48.831299999999999     49.946050000000000
H      50.183000000000000     49.913699999999999     46.845050000000001
H      45.817000000000000     46.610199999999999     48.514049999999997
H      50.071300000000001     47.453299999999999     45.872050000000002
H      47.434500000000000     50.869300000000003     50.127949999999998
H      49.582300000000011     51.216900000000003     48.458749999999995
H      46.869700000000002     44.783099999999997     47.220349999999996
H      48.967100000000009     45.167099999999998     45.963849999999994
