18

C      47.585949999999997     47.604849999999992     47.408949999999990
C      47.611550000000008     48.052049999999994     48.749949999999991
C      48.227950000000007     46.449849999999998     46.991450000000000
C      48.386049999999997     47.141549999999995     49.652749999999990
C      46.711650000000006     48.548850000000002     46.638750000000002
C      46.880350000000007     49.264049999999997     49.106850000000001
C      49.106549999999999     45.656350000000003     47.678649999999998
C      49.342750000000009     46.235749999999996     49.016849999999998
C      46.523750000000007     49.909850000000006     46.808349999999997
C      46.677450000000007     50.258150000000001     48.209249999999990
H      48.122650000000007     46.190749999999994     45.913649999999997
H      47.738450000000000     46.431349999999995     50.033450000000002
H      45.737350000000006     48.220849999999999     46.255949999999999
H      46.449250000000006     49.263450000000006     50.086350000000003
H      49.443849999999998     44.714349999999996     47.179749999999999
H      50.262649999999994     46.379750000000001     49.662750000000010
H      46.091750000000005     50.724149999999995     46.218750000000000
H      46.042749999999998     51.285650000000004     48.259749999999997
