18

C      47.574963999999994     47.408499999999997     47.973929999999989
C      48.314910000000005     48.620300000000000     47.836730000000003
C      47.947679999999998     46.840100000000007     49.298530000000000
C      49.285249999999998     49.222300000000004     48.661130000000000
C      46.655809300000001     46.809700000000007     47.110630000000000
C      47.885389999999994     49.282300000000006     46.623329999999996
C      48.988939999999999     47.418999999999997     50.119129999999998
C      49.664470000000001     48.626700000000000     49.764930000000000
C      46.462140000000026     47.415900000000008     45.852719999999998
C      47.161337000000003     48.656000000000006     45.582110000000000
H      47.646830000000001     45.805499999999995     49.353330000000000
H      49.801970000000004     50.063500000000005     48.212630000000004
H      46.037140000000008     45.976100000000002     47.577730000000003
H      48.640160000000002     50.194500000000005     46.437429999999999
H      49.173720000000003     47.347899999999996     51.113730000000004
H      50.590259999999994     49.181100000000001     50.229830000000000
H      45.409740000000006     47.205700000000007     45.558759999999999
H      47.228358000000000     49.312300000000008     44.886269999999996
