18

C      47.942249999999987     47.398350000000001     48.162149999999983
C      47.999450000000003     48.941550000000007     48.020449999999997
C      48.727550000000001     46.756450000000001     49.098849999999999
C      48.522449999999999     49.564250000000001     49.181150000000002
C      46.999649999999995     46.530349999999999     47.480450000000005
C      48.003149999999998     49.385050000000007     46.638249999999999
C      49.222149999999992     47.416350000000008     50.240150000000000
C      49.181449999999991     48.823050000000009     50.116950000000003
C      46.785850000000003     47.172250000000005     46.183250000000001
C      47.293149999999990     48.369349999999997     45.843350000000001
H      48.954950000000004     45.769750000000002     49.078249999999997
H      48.644349999999996     50.626249999999999     49.177149999999997
H      46.556649999999998     45.373750000000001     47.600350000000006
H      48.293849999999999     50.397750000000002     46.262349999999998
H      49.670049999999996     46.866450000000000     51.092250000000007
H      49.582950000000004     49.324449999999999     51.109250000000003
H      46.329950000000004     46.507050000000007     45.499049999999997
H      47.481949999999991     48.812350000000009     44.890749999999997
