55

C      49.081699999999991     46.645464999999987     49.156049999999993
C      48.132500000000000     46.584095000000005     50.279049999999998
C      46.216600000000000     49.485245000000006     46.542850000000001
C      45.315399999999997     49.645285000000001     47.702749999999995
C      48.658799999999999     47.114655000000013     47.868250000000003
C      46.722499999999997     46.775345000000002     49.962350000000001
C      46.991999999999997     48.254945000000006     46.488149999999990
C      45.521999999999998     48.878434999999996     48.954449999999994
C      47.327199999999998     47.756635000000003     47.813850000000002
C      46.307800000000000     47.721835000000013     48.831949999999992
C      50.386399999999995     45.989455000000007     49.133249999999990
C      50.565199999999990     45.265834999999996     50.398550000000000
C      49.646099999999997     45.171075000000002     51.489749999999987
C      48.464999999999996     45.806974999999994     51.488349999999983
C      46.261199999999995     50.589535000000012     45.554450000000003
C      45.278599999999997     51.483935000000002     45.785049999999998
C      44.436299999999996     51.686235000000011     46.781549999999996
C      44.490299999999998     50.780835000000010     47.945250000000001
C      49.146400000000000     47.164465000000007     46.434950000000001
C      50.878100000000003     44.390415000000004     47.557149999999993
C      51.168799999999990     45.698705000000004     47.933250000000001
C      45.812199999999997     46.505475000000004     51.051949999999991
C      45.886699999999998     46.123414999999994     52.456249999999997
C      47.389800000000001     45.287095000000008     52.431349999999995
C      48.332200000000000     48.262555000000006     45.706350000000000
C      46.437599999999996     49.362954999999999     43.434150000000002
C      46.951200000000000     50.351335000000006     44.224750000000000
C      44.901499999999999     49.814454999999995     50.013449999999992
C      44.007599999999996     50.658135000000001     49.377149999999986
C      51.633499999999998     44.511534999999995     50.787649999999999
C      51.484899999999996     44.085404999999994     52.252150000000000
C      50.114999999999995     44.406835000000001     52.664149999999992
H      43.564399999999999     52.254935000000003     47.170050000000003
H      48.114699999999999     48.051265000000001     44.627049999999997
H      48.982499999999995     45.967815000000002     46.063850000000002
H      51.361199999999997     43.924845000000005     46.635750000000002
H      50.425500000000000     43.590864999999994     48.256549999999990
H      51.870699999999999     46.446835000000007     47.424650000000000
H      44.721599999999995     46.895925000000005     51.006949999999989
H      45.443999999999996     46.836395000000010     53.145650000000003
H      45.182699999999997     45.356044999999995     52.887850000000000
H      47.511299999999999     45.536045000000001     53.491450000000000
H      47.100400000000000     44.290985000000006     52.382849999999991
H      48.911499999999997     49.227985000000004     45.895249999999990
H      50.199500000000000     47.309065000000004     46.768850000000000
H      45.503799999999998     48.868975000000006     43.693950000000001
H      46.602699999999999     49.201515000000001     42.313350000000000
H      47.473999999999997     51.177835000000002     43.653049999999993
H      43.594699999999996     51.348435000000009     49.948149999999998
H      52.435600000000001     44.074415000000002     50.438149999999993
H      52.261399999999995     43.918274999999994     52.978849999999994
H      49.715499999999999     44.283034999999998     53.686650000000000
H      44.030299999999997     52.409135000000006     44.103449999999995
H      45.249600000000001     49.785525000000007     51.142449999999997
O      44.897199999999998     52.357735000000005     44.619549999999990
