18

C      47.416699999999992     47.589799999999997     48.533092499999981
C      48.460400000000000     48.115700000000004     47.713992499999996
C      47.164900000000003     48.147100000000002     49.980492499999990
C      49.285499999999992     49.170600000000000     48.261092499999997
C      46.552000000000000     46.612600000000008     47.971692499999996
C      48.597400000000000     47.939399999999999     46.279392499999993
C      48.261699999999998     48.976400000000005     50.300792499999993
C      49.403399999999998     49.550699999999999     49.599192499999994
C      46.783200000000001     46.454100000000004     46.568392499999995
C      47.783500000000004     46.923200000000001     45.731792499999990
H      46.000300000000003     45.798600000000000     48.560092499999989
H      46.360300000000002     47.753900000000009     50.637392499999997
H      49.999699999999997     49.558200000000006     47.629992499999993
H      49.574300000000001     48.336600000000004     45.767592499999999
H      48.577100000000002     49.303900000000006     51.386707500000007
H      49.986200000000004     50.201400000000000     50.099592499999993
H      46.256999999999998     45.882700000000007     46.035192500000001
H      47.939100000000003     46.825600000000001     44.613292499999993
