18

C      48.286799999999985     47.196599999999989     48.323049999999981
C      47.812899999999999     48.512800000000013     47.859349999999999
C      49.564800000000005     46.786400000000000     47.927450000000000
C      48.458600000000004     49.478500000000011     46.987349999999999
C      47.469499999999996     46.592100000000002     49.424849999999999
C      46.736099999999993     48.985900000000001     48.575550000000000
C      50.229100000000003     47.852600000000010     47.234249999999996
C      49.602300000000000     48.945600000000013     46.562149999999995
C      46.149799999999999     47.003200000000007     49.775749999999995
C      45.741600000000005     48.303300000000007     49.258649999999996
H      50.063699999999997     45.870500000000007     48.424349999999997
H      47.859899999999996     50.280400000000000     46.483749999999993
H      47.769899999999993     45.719600000000000     49.860549999999996
H      46.295599999999993     50.037300000000002     48.313649999999988
H      51.083399999999997     47.458500000000001     46.642949999999992
H      50.332400000000007     49.578000000000003     45.930850000000000
H      45.583299999999994     46.040900000000008     50.069150000000000
H      44.916600000000003     48.970200000000006     49.658749999999991
