18

C      47.964799999999983     48.269749999999988     48.569699999999997
C      48.406199999999991     48.058250000000001     47.101700000000001
C      48.462899999999998     49.151550000000000     49.483899999999998
C      49.613199999999999     48.840549999999993     46.900300000000001
C      46.804099999999998     47.747249999999994     49.146300000000004
C      47.875700000000002     46.802949999999996     46.528500000000001
C      49.683000000000000     49.917850000000001     49.170000000000002
C      50.124899999999990     49.880549999999999     47.719600000000000
C      46.109199999999994     46.902450000000002     48.279100000000000
C      46.596499999999999     46.457849999999993     47.024300000000004
H      47.724899999999998     49.442750000000004     50.374400000000001
H      50.000399999999992     49.052650000000000     45.926700000000004
H      46.503399999999992     48.110749999999996     50.203600000000002
H      48.325299999999991     46.332650000000001     45.625599999999999
H      50.155099999999997     50.477050000000006     49.974499999999999
H      51.056199999999997     50.571150000000003     47.174600000000005
H      44.943800000000003     46.613749999999996     48.547100000000000
H      46.397599999999990     45.428849999999997     46.350999999999999
