18

C      48.636849999999988     47.668199999999999     48.489299999999993
C      47.358549999999994     48.155200000000001     47.893500000000003
C      49.594149999999999     48.642900000000004     48.664699999999996
C      47.192949999999996     49.521999999999998     47.324700000000000
C      48.818749999999994     46.394100000000002     48.634000000000000
C      46.423450000000003     47.148100000000007     47.503200000000000
C      49.237849999999995     50.041599999999995     48.333799999999997
C      48.236249999999998     50.379100000000001     47.443300000000001
C      48.128550000000004     45.501500000000000     47.672200000000004
C      46.816649999999996     45.742600000000003     47.221499999999999
H      50.640450000000001     48.679300000000005     49.377400000000002
H      46.054649999999995     49.674600000000005     46.622599999999998
H      49.922849999999997     46.165900000000001     48.934100000000001
H      45.359549999999999     47.281100000000002     47.480800000000002
H      49.863249999999994     50.790300000000009     48.377499999999998
H      48.200749999999999     51.446599999999997     47.005700000000004
H      48.560950000000005     44.553400000000003     47.528599999999997
H      46.359549999999999     44.962300000000006     46.684500000000000
