18

C      47.727834999999992     47.974899999999991     48.516900000000000
C      48.363534999999999     47.596799999999995     47.147999999999996
C      48.683835000000002     48.583099999999995     49.494500000000002
C      49.606764999999996     48.035199999999996     46.853499999999997
C      46.313634999999991     47.698699999999995     48.827600000000004
C      47.367135000000005     46.925199999999997     46.437200000000004
C      49.882610999999997     49.025500000000001     49.022199999999998
C      50.385155000000012     48.881700000000002     47.775700000000001
C      45.467534999999998     47.160999999999994     47.814000000000007
C      46.019534999999991     46.736300000000000     46.551699999999997
H      48.111334999999997     48.955999999999996     50.477400000000003
H      50.389155000000002     47.716299999999997     46.184700000000007
H      45.786135000000002     48.287600000000005     49.722200000000001
H      47.754234999999994     46.538000000000004     45.534400000000005
H      50.313135000000003     49.461999999999996     50.165400000000005
H      51.514965000000004     49.255699999999997     47.699300000000008
H      44.485034999999996     47.394399999999997     48.072900000000004
H      45.387635000000003     46.587499999999999     45.522599999999997
