47

C      47.780174999999986     48.701899999999995     48.893649999999994
C      47.348974999999996     49.632600000000004     47.886250000000004
C      50.486374999999995     52.347200000000001     49.959250000000011
C      48.871875000000003     49.140999999999998     49.747050000000002
C      47.772874999999999     50.890700000000002     47.578550000000007
C      50.356175000000007     50.985799999999998     50.494050000000001
C      49.656375000000011     52.408299999999990     48.716650000000001
C      49.444275000000005     50.379199999999990     49.567149999999998
C      48.940174999999996     51.263100000000001     48.479950000000002
C      47.356875000000002     47.370100000000001     49.225049999999996
C      46.483805000000004     46.671300000000002     48.222049999999996
C      45.962895000000003     47.525100000000002     47.243750000000006
C      46.343054999999993     48.946099999999994     47.025649999999999
C      47.910875000000004     46.550300000000000     50.360150000000004
C      47.591774999999998     45.074199999999998     50.375450000000015
C      46.715315000000004     44.593200000000003     49.465450000000004
C      46.224855000000005     45.221100000000000     48.304050000000004
C      49.049774999999997     46.977499999999999     51.178650000000005
C      49.577775000000003     48.332000000000001     50.828950000000006
C      45.282264999999995     46.995500000000000     45.903050000000007
C      44.790535000000006     47.653599999999997     44.679850000000002
C      44.847994999999997     49.083300000000001     44.883350000000007
C      45.798874999999995     49.567300000000010     45.890850000000000
C      45.668494999999993     44.746699999999997     46.964349999999996
C      45.430864999999997     45.640000000000001     45.847750000000005
C      47.119275000000002     51.696800000000003     46.620950000000008
C      46.096805000000003     50.943600000000004     45.731650000000002
C      50.592675000000000     48.857799999999997     51.702849999999998
C      50.935774999999992     50.218699999999991     51.573850000000007
C      46.494105000000005     43.067200000000000     49.522949999999994
C      47.555374999999998     52.895499999999998     46.188350000000000
H      50.972274999999996     53.136800000000001     50.471950000000007
H      49.424875000000000     53.320500000000003     48.029150000000001
H      48.158974999999998     44.576599999999999     51.163750000000007
H      49.302075000000002     46.621900000000004     52.112150000000000
H      44.194265000000001     49.663699999999999     44.406350000000003
H      45.093904999999992     45.016700000000000     45.121350000000007
H      45.751964999999998     51.484700000000011     44.792749999999998
H      51.027474999999995     48.013600000000004     52.319450000000003
H      51.897575000000003     50.235000000000007     52.204750000000004
H      45.411284999999992     43.037300000000002     49.032250000000005
H      44.412274999999994     46.112400000000001     43.734849999999994
H      46.931455000000000     53.563200000000002     45.266249999999999
H      48.641374999999996     53.344999999999999     46.421949999999995
O      47.030585000000002     42.436799999999998     50.387950000000004
O      44.102424999999997     47.048200000000001     43.680549999999997
O      45.827474999999993     43.587600000000002     46.665850000000006
