18

C      47.515699999999988     47.509050000000002     47.600949999999997
C      48.762099999999990     48.253350000000012     47.705449999999999
C      46.332599999999992     48.097149999999999     47.261250000000004
C      48.844199999999994     49.719050000000010     47.418350000000004
C      47.533899999999988     46.114250000000013     48.113549999999989
C      49.872000000000000     47.389550000000000     47.817149999999998
C      46.288899999999998     49.452550000000002     46.766549999999995
C      47.547199999999989     50.221750000000000     46.896550000000005
C      48.731399999999994     45.452350000000010     48.783850000000001
C      49.966999999999999     46.073450000000008     48.445149999999998
H      45.401399999999995     47.483350000000002     47.301550000000006
H      49.588599999999985     50.429150000000007     47.763649999999998
H      46.971299999999992     45.254550000000009     47.855050000000006
H      50.784799999999990     48.120950000000008     47.219049999999996
H      45.201999999999998     49.732750000000010     46.486450000000005
H      47.708499999999987     51.403049999999993     46.887150000000005
H      48.622399999999999     44.596950000000007     49.513549999999995
H      50.798000000000002     45.637250000000009     48.790250000000000
