18

C      47.311549999999990     48.132599999999989     48.859549999999999
C      48.413749999999993     48.293199999999999     47.854549999999996
C      45.999249999999996     48.455100000000002     48.351350000000004
C      48.243849999999995     49.133499999999998     46.658849999999994
C      47.508649999999996     47.120400000000004     49.863549999999996
C      49.764250000000004     47.953999999999994     48.252150000000007
C      46.001049999999999     49.583500000000001     47.405850000000008
C      47.112849999999995     49.864899999999992     46.568350000000002
C      48.685049999999997     46.465099999999993     49.967450000000007
C      49.947850000000003     47.051699999999997     49.401550000000007
H      45.272849999999998     47.917699999999996     48.697350000000007
H      49.109849999999994     49.252600000000001     45.992950000000000
H      46.307249999999996     46.694099999999992     50.261749999999999
H      50.370249999999999     48.446100000000001     47.597950000000004
H      45.033749999999998     50.034899999999993     47.078849999999996
H      47.408749999999998     50.625100000000003     45.738250000000001
H      48.806649999999991     45.374899999999997     50.055349999999997
H      50.966250000000002     46.887100000000004     49.824149999999996
