18

C      48.787754999999990     48.677249999999994     48.169949999999986
C      47.821854999999992     47.678650000000005     48.295149999999992
C      49.682677000000005     48.479749999999996     47.052449999999993
C      47.996755000000000     46.327050000000000     47.797349999999994
C      48.228054999999991     50.063450000000003     48.465649999999997
C      46.405655000000003     47.792349999999999     48.806750000000008
C      49.914747000000013     47.159250000000000     46.605750000000000
C      49.090254999999992     46.031949999999995     46.929850000000002
C      47.181355000000003     50.014150000000001     49.371549999999999
C      46.182754999999993     48.981650000000002     49.451650000000001
H      50.211605000000006     49.207149999999999     46.511449999999996
H      47.462054999999999     45.383949999999999     48.264150000000001
H      49.008355000000002     50.935850000000002     48.527249999999995
H      45.675755000000002     47.049350000000004     48.652650000000008
H      50.768345000000004     47.116249999999994     45.858949999999993
H      49.396854999999995     45.064149999999998     46.731949999999998
H      46.910054999999993     50.928349999999995     50.037849999999992
H      45.231654999999996     49.142349999999993     50.141050000000007
