18

C      48.358849999999990     48.299949999999988     47.549799999999991
C      47.365050000000004     48.019649999999999     48.515499999999996
C      49.504250000000006     47.385549999999995     47.478100000000005
C      46.930550000000004     46.640149999999998     48.735900000000008
C      48.287450000000000     49.512249999999995     46.811900000000001
C      46.547850000000004     49.042649999999995     49.168900000000001
C      49.320850000000000     46.175149999999995     47.963200000000008
C      47.949249999999999     45.661949999999997     48.321599999999997
C      47.391950000000001     50.501349999999988     47.327999999999996
C      46.384750000000004     50.124449999999996     48.365600000000008
H      50.234850000000002     45.441350000000000     48.053000000000004
H      50.402250000000002     47.778549999999996     47.107599999999998
H      45.971849999999996     46.474950000000000     49.318900000000006
H      48.764249999999997     49.757450000000006     46.089800000000004
H      45.712750000000007     48.803349999999995     49.910199999999996
H      47.813350000000007     44.535849999999996     48.769300000000008
H      47.898249999999997     51.464150000000004     47.265400000000007
H      45.597749999999998     50.744950000000003     48.586700000000000
