6

C      48.586174999999997     47.583049999999986     48.427199999999992
C      47.844494999999995     47.770949999999992     47.273200000000003
H      48.061925000000002     47.388449999999999     49.323099999999997
H      49.398944999999998     48.301249999999989     48.605000000000004
H      48.302464999999998     48.611550000000001     46.676900000000003
H      46.601055000000002     47.619249999999987     47.248300000000000
