5

C      47.668004999999994     47.574399999999997     47.823899999999995
H      47.782415000000000     47.271400000000000     48.890000000000001
H      47.422625000000004     48.889000000000003     47.824200000000005
H      48.895375000000001     47.340899999999998     47.894500000000008
H      47.104624999999999     47.110999999999997     47.109999999999999
