18

C      48.421599999999998     48.290349999999989     47.524049999999995
C      48.171999999999997     47.269050000000007     48.578550000000007
C      48.593899999999991     49.637950000000004     48.047849999999997
C      47.647199999999998     47.761449999999996     49.801749999999998
C      48.864500000000007     47.873050000000006     46.203649999999996
C      48.202500000000001     45.836150000000004     48.288950000000000
C      48.196799999999996     50.121850000000009     49.299450000000007
C      47.500000000000000     49.073149999999998     50.086449999999999
C      48.896999999999991     46.509749999999997     45.956050000000005
C      48.470499999999987     45.486750000000001     46.914349999999999
H      49.195499999999996     50.491650000000007     47.505350000000007
H      46.780100000000004     46.937449999999998     50.241349999999997
H      49.219899999999996     48.476849999999999     45.486249999999998
H      48.054500000000004     45.056950000000001     48.979150000000004
H      48.276300000000006     51.482349999999997     49.552350000000004
H      46.793499999999995     49.116250000000008     50.949749999999995
H      49.213899999999995     46.096150000000009     45.050250000000005
H      48.041799999999995     44.517650000000003     46.330349999999996
