19

C      47.630849999999995     47.055399999999992     47.516849999999991
C      47.571950000000008     48.137299999999996     48.543349999999997
C      48.680850000000000     46.138300000000001     47.792750000000005
C      48.427050000000001     48.398899999999998     49.758550000000000
C      47.097950000000004     47.663599999999988     46.263950000000001
C      47.002150000000007     49.374499999999998     48.191749999999999
C      49.251250000000006     46.107599999999991     49.045850000000002
C      48.734450000000002     46.908199999999994     50.051549999999999
C      46.520950000000006     48.912599999999998     45.971049999999998
C      46.404550000000008     49.759299999999996     47.001750000000001
H      49.224250000000005     48.756900000000002     49.121549999999999
H      48.908750000000005     45.753799999999998     46.761250000000004
H      48.113050000000008     49.027799999999999     50.764250000000004
H      47.114450000000012     47.123399999999990     45.330350000000003
H      47.223150000000011     50.033000000000001     49.152349999999998
H      49.991650000000000     45.064599999999999     49.162150000000004
H      48.862450000000003     46.553299999999993     51.157049999999998
H      46.195950000000003     48.948299999999989     44.842950000000002
H      46.008350000000000     50.935400000000001     46.928449999999998
