18

C      48.995199999999997     47.626099999999994     47.772549999999995
C      48.123300000000008     48.514000000000003     47.070950000000003
C      50.071800000000003     47.865600000000001     48.602850000000004
C      48.632700000000007     49.895499999999991     47.246850000000002
C      48.654600000000009     46.079299999999996     47.744850000000000
C      46.928800000000003     48.118199999999995     46.441250000000004
C      49.945900000000002     49.131899999999995     49.216050000000003
C      49.645100000000006     50.141700000000007     48.269649999999992
C      47.503599999999999     45.796900000000001     46.999949999999998
C      46.645800000000001     46.705700000000000     46.517250000000004
H      50.403900000000000     46.851399999999998     49.007150000000003
H      48.690199999999997     50.752699999999997     46.520750000000000
H      49.365400000000001     45.339300000000001     48.015449999999994
H      46.162500000000001     48.811799999999998     45.882050000000000
H      50.400900000000000     49.203499999999998     50.117950000000000
H      49.663100000000007     51.259999999999998     48.295549999999999
H      47.384300000000003     44.740000000000002     46.942950000000003
H      45.596100000000000     46.310499999999998     46.146250000000002
