18

C      47.356169999999992     48.341499999999996     48.036299999999997
C      48.313260000000007     47.243299999999998     48.073100000000004
C      46.066760000000002     48.191000000000003     47.349100000000000
C      48.301470000000002     46.286500000000004     47.050000000000004
C      47.577030000000001     49.451799999999999     49.039700000000003
C      49.635280000000002     47.419900000000005     48.625100000000003
C      46.037590000000002     47.314300000000003     46.228000000000002
C      47.150649999999999     46.428900000000006     46.279200000000003
C      48.845629999999993     49.394300000000008     49.608000000000011
C      49.824410000000000     48.395400000000002     49.530800000000006
H      45.208779999999997     49.058700000000002     47.739400000000003
H      49.252600000000008     45.861100000000000     46.639200000000002
H      46.689750000000004     50.045700000000004     49.308600000000006
H      50.156570000000002     46.422200000000004     48.681099999999994
H      45.428220000000003     47.682500000000005     45.472400000000000
H      46.914890000000000     45.828600000000002     45.518500000000003
H      48.912340000000000     50.171399999999998     50.527600000000000
H      50.791220000000003     48.348199999999999     50.220199999999998
