
     RDKit          3D

132145  0  0  0  0  0  0  0  0999 V2000
    5.1260    1.2330    1.0310 C   0  0  0  0  0  0  0  0  0  0  0  0
    5.1640    1.7550    2.3370 C   0  0  0  0  0  0  0  0  0  0  0  0
   -0.4510    5.6510   -0.8850 C   0  0  0  0  0  0  0  0  0  0  0  0
   -1.0590    5.3670    0.3620 C   0  0  0  0  0  0  0  0  0  0  0  0
    4.2110    1.8010    0.1220 C   0  0  0  0  0  0  0  0  0  0  0  0
    4.1230    2.6100    2.7390 C   0  0  0  0  0  0  0  0  0  0  0  0
    0.8240    5.0850   -1.1680 C   0  0  0  0  0  0  0  0  0  0  0  0
   -0.2550    4.7590    1.3500 C   0  0  0  0  0  0  0  0  0  0  0  0
    2.6370    3.5570   -0.4750 C   0  0  0  0  0  0  0  0  0  0  0  0
    1.9340    3.7820    2.1590 C   0  0  0  0  0  0  0  0  0  0  0  0
    3.3530    2.8410    0.4850 C   0  0  0  0  0  0  0  0  0  0  0  0
    3.1460    3.1080    1.8410 C   0  0  0  0  0  0  0  0  0  0  0  0
    1.5280    4.3420   -0.1760 C   0  0  0  0  0  0  0  0  0  0  0  0
    1.0650    4.3130    1.1460 C   0  0  0  0  0  0  0  0  0  0  0  0
    5.8770    0.0650    0.7080 C   0  0  0  0  0  0  0  0  0  0  0  0
    6.9000   -0.3460    1.5560 C   0  0  0  0  0  0  0  0  0  0  0  0
    7.0770    0.3160    2.7730 C   0  0  0  0  0  0  0  0  0  0  0  0
    6.1810    1.3130    3.1840 C   0  0  0  0  0  0  0  0  0  0  0  0
   -1.1540    6.4580   -1.7980 C   0  0  0  0  0  0  0  0  0  0  0  0
   -2.4700    6.8590   -1.5650 C   0  0  0  0  0  0  0  0  0  0  0  0
   -3.1170    6.4430   -0.4140 C   0  0  0  0  0  0  0  0  0  0  0  0
   -2.4270    5.7270    0.5780 C   0  0  0  0  0  0  0  0  0  0  0  0
    4.0060    1.0660   -1.1880 C   0  0  0  0  0  0  0  0  0  0  0  0
    4.0240   -0.4170   -0.8120 C   0  0  2  0  0  0  0  0  0  0  0  0
    5.4880   -0.7780   -0.5070 C   0  0  0  0  0  0  0  0  0  0  0  0
    1.5100    3.8080    3.5910 C   0  0  0  0  0  0  0  0  0  0  0  0
    1.5200    2.7710    4.2470 O   0  0  0  0  0  0  0  0  0  0  0  0
    1.0550    5.1230    4.1970 C   0  0  0  0  0  0  0  0  0  0  0  0
    1.5790    5.2850   -2.8140 S   0  0  0  0  0  0  0  0  0  0  0  0
    3.1580   -1.2230   -1.7780 C   0  0  0  0  0  0  0  0  0  0  0  0
    1.7080    5.4160    5.5410 C   0  0  0  0  0  0  0  0  0  0  0  0
    3.2250    5.4700    5.4630 C   0  0  0  0  0  0  0  0  0  0  0  0
   -3.2350    5.3220    1.7940 C   0  0  0  0  0  0  0  0  0  0  0  0
   -3.3030   -4.4270   -2.9150 C   0  0  0  0  0  0  0  0  0  0  0  0
   -0.4470   -0.9180   -1.1180 C   0  0  0  0  0  0  0  0  0  0  0  0
    1.3960   -4.9880   -3.0910 C   0  0  0  0  0  0  0  0  0  0  0  0
   -3.1690   -3.2620   -2.1380 C   0  0  0  0  0  0  0  0  0  0  0  0
   -2.2720   -4.8410   -3.7760 C   0  0  0  0  0  0  0  0  0  0  0  0
   -1.7500   -1.4640   -1.2820 C   0  0  0  0  0  0  0  0  0  0  0  0
    0.2600   -5.1580   -3.7980 C   0  0  0  0  0  0  0  0  0  0  0  0
    0.6900   -1.6460   -1.5330 C   0  0  0  0  0  0  0  0  0  0  0  0
    1.3150   -4.1490   -1.8280 C   0  0  2  0  0  0  0  0  0  0  0  0
   -1.9060   -2.6350   -2.0420 C   0  0  0  0  0  0  0  0  0  0  0  0
   -0.9700   -4.4050   -3.4460 C   0  0  0  0  0  0  0  0  0  0  0  0
    0.5020   -2.8970   -2.0920 C   0  0  0  0  0  0  0  0  0  0  0  0
   -0.7940   -3.2560   -2.5850 C   0  0  0  0  0  0  0  0  0  0  0  0
   -4.4670   -5.2050   -2.7720 C   0  0  0  0  0  0  0  0  0  0  0  0
   -5.5020   -4.7470   -1.9680 C   0  0  0  0  0  0  0  0  0  0  0  0
   -5.4240   -3.5340   -1.3060 C   0  0  0  0  0  0  0  0  0  0  0  0
   -4.2480   -2.7800   -1.3830 C   0  0  0  0  0  0  0  0  0  0  0  0
   -4.1120   -1.5680   -0.7020 C   0  0  0  0  0  0  0  0  0  0  0  0
   -2.8820   -0.8930   -0.6710 C   0  0  0  0  0  0  0  0  0  0  0  0
   -2.7020   -5.8560   -4.8340 C   0  0  2  0  0  0  0  0  0  0  0  0
   -3.2370   -7.0580   -4.0620 C   0  0  0  0  0  0  0  0  0  0  0  0
   -4.5290   -6.6100   -3.3570 C   0  0  0  0  0  0  0  0  0  0  0  0
   -0.3040    0.4070   -0.3910 C   0  0  0  0  0  0  0  0  0  0  0  0
   -1.3940    0.6040    0.6600 C   0  0  0  0  0  0  0  0  0  0  0  0
   -2.7750    0.4400    0.0420 C   0  0  0  0  0  0  0  0  0  0  0  0
    1.8550   -1.0640   -1.1750 O   0  0  0  0  0  0  0  0  0  0  0  0
   -6.6330   -5.4910   -1.8210 O   0  0  0  0  0  0  0  0  0  0  0  0
    2.5100   -4.2560   -0.8750 C   0  0  0  0  0  0  0  0  0  0  0  0
    2.4130   -5.5270   -0.0110 C   0  0  0  0  0  0  0  0  0  0  0  0
    3.7120   -5.8080    0.7220 C   0  0  0  0  0  0  0  0  0  0  0  0
   -1.8850   -6.2020   -6.0770 C   0  0  0  0  0  0  0  0  0  0  0  0
   -4.3160    1.2960    4.6010 C   0  0  0  0  0  0  0  0  0  0  0  0
   -5.3940    1.5860    3.7590 C   0  0  0  0  0  0  0  0  0  0  0  0
   -5.2510    2.5190    2.7230 C   0  0  0  0  0  0  0  0  0  0  0  0
   -4.0540    3.2060    2.5560 C   0  0  0  0  0  0  0  0  0  0  0  0
   -2.9840    2.9030    3.4000 C   0  0  0  0  0  0  0  0  0  0  0  0
   -3.0950    1.9370    4.4000 C   0  0  0  0  0  0  0  0  0  0  0  0
   -3.9570    4.1060    1.5280 O   0  0  0  0  0  0  0  0  0  0  0  0
   -1.8770    1.5560    5.1980 C   0  0  0  0  0  0  0  0  0  0  0  0
    4.0480    2.8480    3.7970 H   0  0  0  0  0  0  0  0  0  0  0  0
   -0.6910    4.5810    2.3190 H   0  0  0  0  0  0  0  0  0  0  0  0
    2.9450    3.4330   -1.5150 H   0  0  0  0  0  0  0  0  0  0  0  0
    7.5310   -1.1930    1.3030 H   0  0  0  0  0  0  0  0  0  0  0  0
    7.9020    0.0300    3.4240 H   0  0  0  0  0  0  0  0  0  0  0  0
    6.2790    1.7370    4.1760 H   0  0  0  0  0  0  0  0  0  0  0  0
   -0.6860    6.8210   -2.6950 H   0  0  0  0  0  0  0  0  0  0  0  0
   -2.9800    7.4810   -2.2960 H   0  0  0  0  0  0  0  0  0  0  0  0
   -4.1730    6.6770   -0.2870 H   0  0  0  0  0  0  0  0  0  0  0  0
    4.8080    1.3220   -1.8980 H   0  0  0  0  0  0  0  0  0  0  0  0
    3.0490    1.3150   -1.6600 H   0  0  0  0  0  0  0  0  0  0  0  0
    3.4940   -0.5400    0.1600 H   0  0  0  0  0  0  0  0  0  0  0  0
    5.5490   -1.8410   -0.2450 H   0  0  0  0  0  0  0  0  0  0  0  0
    6.1560   -0.5710   -1.3540 H   0  0  0  0  0  0  0  0  0  0  0  0
   -0.0320    5.0440    4.3520 H   0  0  0  0  0  0  0  0  0  0  0  0
    1.2330    5.9510    3.5020 H   0  0  0  0  0  0  0  0  0  0  0  0
    0.4730    5.0430   -3.5420 H   0  0  0  0  0  0  0  0  0  0  0  0
    3.4610   -2.2640   -1.8300 H   0  0  0  0  0  0  0  0  0  0  0  0
    3.1610   -0.7680   -2.7850 H   0  0  0  0  0  0  0  0  0  0  0  0
    1.3200    6.3710    5.9040 H   0  0  0  0  0  0  0  0  0  0  0  0
    1.4120    4.6550    6.2790 H   0  0  0  0  0  0  0  0  0  0  0  0
    3.6470    4.4560    5.4200 H   0  0  0  0  0  0  0  0  0  0  0  0
    3.5610    6.0310    4.5830 H   0  0  0  0  0  0  0  0  0  0  0  0
    3.6240    5.9640    6.3590 H   0  0  0  0  0  0  0  0  0  0  0  0
   -2.6040    5.3130    2.7040 H   0  0  0  0  0  0  0  0  0  0  0  0
   -3.9830    6.1140    2.0010 H   0  0  0  0  0  0  0  0  0  0  0  0
    2.2830   -5.5890   -3.2930 H   0  0  0  0  0  0  0  0  0  0  0  0
    0.2140   -5.9480   -4.5330 H   0  0  0  0  0  0  0  0  0  0  0  0
    0.5790   -4.7180   -1.2290 H   0  0  0  0  0  0  0  0  0  0  0  0
   -6.2470   -3.2120   -0.6720 H   0  0  0  0  0  0  0  0  0  0  0  0
   -4.9630   -1.1380   -0.1710 H   0  0  0  0  0  0  0  0  0  0  0  0
   -3.5810   -5.3780   -5.3030 H   0  0  0  0  0  0  0  0  0  0  0  0
   -2.4900   -7.4080   -3.3380 H   0  0  0  0  0  0  0  0  0  0  0  0
   -3.4680   -7.8950   -4.7270 H   0  0  0  0  0  0  0  0  0  0  0  0
   -4.7530   -7.3300   -2.5570 H   0  0  0  0  0  0  0  0  0  0  0  0
   -5.3530   -6.6260   -4.0730 H   0  0  0  0  0  0  0  0  0  0  0  0
   -0.3470    1.2080   -1.1400 H   0  0  0  0  0  0  0  0  0  0  0  0
    0.6580    0.4730    0.1230 H   0  0  0  0  0  0  0  0  0  0  0  0
   -1.2650   -0.1280    1.4650 H   0  0  0  0  0  0  0  0  0  0  0  0
   -1.2930    1.5990    1.1040 H   0  0  0  0  0  0  0  0  0  0  0  0
   -3.5400    0.5000    0.8140 H   0  0  0  0  0  0  0  0  0  0  0  0
   -2.9650    1.2380   -0.6880 H   0  0  0  0  0  0  0  0  0  0  0  0
   -7.1700   -5.2680   -2.6090 H   0  0  0  0  0  0  0  0  0  0  0  0
    2.5060   -3.4050   -0.1820 H   0  0  0  0  0  0  0  0  0  0  0  0
    3.4510   -4.2470   -1.4400 H   0  0  0  0  0  0  0  0  0  0  0  0
    1.6160   -5.3760    0.7220 H   0  0  0  0  0  0  0  0  0  0  0  0
    2.1340   -6.4010   -0.6180 H   0  0  0  0  0  0  0  0  0  0  0  0
    4.3820   -6.3850    0.0750 H   0  0  0  0  0  0  0  0  0  0  0  0
    3.5170   -6.4010    1.6240 H   0  0  0  0  0  0  0  0  0  0  0  0
    4.2320   -4.8840    1.0020 H   0  0  0  0  0  0  0  0  0  0  0  0
   -1.8380   -5.3260   -6.7290 H   0  0  0  0  0  0  0  0  0  0  0  0
   -2.3860   -7.0000   -6.6220 H   0  0  0  0  0  0  0  0  0  0  0  0
   -0.8750   -6.5440   -5.9020 H   0  0  0  0  0  0  0  0  0  0  0  0
   -4.4230    0.5540    5.3890 H   0  0  0  0  0  0  0  0  0  0  0  0
   -6.3570    1.0880    3.9180 H   0  0  0  0  0  0  0  0  0  0  0  0
   -6.0910    2.6860    2.0480 H   0  0  0  0  0  0  0  0  0  0  0  0
   -2.0100    3.3620    3.2860 H   0  0  0  0  0  0  0  0  0  0  0  0
   -2.1230    0.9350    6.0630 H   0  0  0  0  0  0  0  0  0  0  0  0
   -1.1700    1.0020    4.5680 H   0  0  0  0  0  0  0  0  0  0  0  0
   -1.3960    2.4660    5.5800 H   0  0  0  0  0  0  0  0  0  0  0  0
  1  2  1  0
  1  5  2  0
  1 15  1  0
  2  6  2  0
  2 18  1  0
  3  4  2  0
  3  7  1  0
  3 19  1  0
  4  8  1  0
  4 22  1  0
  5 11  1  0
  5 23  1  0
  6 12  1  0
  6 73  1  0
  7 13  2  0
  7 29  1  0
  8 14  2  0
  8 74  1  0
  9 11  2  0
  9 13  1  0
  9 75  1  0
 10 12  2  0
 10 14  1  0
 10 26  1  0
 11 12  1  0
 13 14  1  0
 15 16  2  0
 15 25  1  0
 16 17  1  0
 16 76  1  0
 17 18  2  0
 17 77  1  0
 18 78  1  0
 19 20  2  0
 19 79  1  0
 20 21  1  0
 20 80  1  0
 21 22  2  0
 21 81  1  0
 22 33  1  0
 23 24  1  0
 23 82  1  0
 23 83  1  0
 24 25  1  0
 24 30  1  0
 24 84  1  1
 25 85  1  0
 25 86  1  0
 26 27  2  0
 26 28  1  0
 28 31  1  0
 28 87  1  0
 28 88  1  0
 29 89  1  0
 30 59  1  0
 30 90  1  0
 30 91  1  0
 31 32  1  0
 31 92  1  0
 31 93  1  0
 32 94  1  0
 32 95  1  0
 32 96  1  0
 33 71  1  0
 33 97  1  0
 33 98  1  0
 34 37  2  0
 34 38  1  0
 34 47  1  0
 35 39  2  0
 35 41  1  0
 35 56  1  0
 36 40  2  0
 36 42  1  0
 36 99  1  0
 37 43  1  0
 37 50  1  0
 38 44  2  0
 38 53  1  0
 39 43  1  0
 39 52  1  0
 40 44  1  0
 40100  1  0
 41 45  2  0
 41 59  1  0
 42 45  1  0
 42 61  1  0
 42101  1  1
 43 46  2  0
 44 46  1  0
 45 46  1  0
 47 48  2  0
 47 55  1  0
 48 49  1  0
 48 60  1  0
 49 50  2  0
 49102  1  0
 50 51  1  0
 51 52  2  0
 51103  1  0
 52 58  1  0
 53 54  1  0
 53 64  1  0
 53104  1  6
 54 55  1  0
 54105  1  0
 54106  1  0
 55107  1  0
 55108  1  0
 56 57  1  0
 56109  1  0
 56110  1  0
 57 58  1  0
 57111  1  0
 57112  1  0
 58113  1  0
 58114  1  0
 60115  1  0
 61 62  1  0
 61116  1  0
 61117  1  0
 62 63  1  0
 62118  1  0
 62119  1  0
 63120  1  0
 63121  1  0
 63122  1  0
 64123  1  0
 64124  1  0
 64125  1  0
 65 66  2  0
 65 70  1  0
 65126  1  0
 66 67  1  0
 66127  1  0
 67 68  2  0
 67128  1  0
 68 69  1  0
 68 71  1  0
 69 70  2  0
 69129  1  0
 70 72  1  0
 72130  1  0
 72131  1  0
 72132  1  0
M  END
