
     RDKit          3D

124139  0  0  0  0  0  0  0  0999 V2000
   -2.1330    0.8260   -1.7320 C   0  0  0  0  0  0  0  0  0  0  0  0
   -2.7950    1.7740   -2.5880 C   0  0  0  0  0  0  0  0  0  0  0  0
   -5.3280    2.3110    1.2980 C   0  0  0  0  0  0  0  0  0  0  0  0
   -2.6740    0.4720   -0.4460 C   0  0  0  0  0  0  0  0  0  0  0  0
   -4.0110    2.3730   -2.1630 C   0  0  0  0  0  0  0  0  0  0  0  0
   -4.3260    1.4250    1.3460 C   0  0  0  0  0  0  0  0  0  0  0  0
   -5.5510    2.8110   -0.0910 C   0  0  0  0  0  0  0  0  0  0  0  0
   -3.7570    1.2550    0.0060 C   0  0  0  0  0  0  0  0  0  0  0  0
   -4.4260    2.1510   -0.8460 C   0  0  0  0  0  0  0  0  0  0  0  0
   -0.8840    0.2650   -2.1450 C   0  0  0  0  0  0  0  0  0  0  0  0
   -0.2200    0.6900   -3.3270 C   0  0  0  0  0  0  0  0  0  0  0  0
   -0.9860    1.4990   -4.2360 C   0  0  0  0  0  0  0  0  0  0  0  0
   -2.2350    2.0840   -3.8530 C   0  0  0  0  0  0  0  0  0  0  0  0
   -0.2680   -0.7130   -1.3180 C   0  0  0  0  0  0  0  0  0  0  0  0
    0.9690   -1.2590   -1.6220 C   0  0  0  0  0  0  0  0  0  0  0  0
    1.7010   -0.7360   -2.6650 C   0  0  0  0  0  0  0  0  0  0  0  0
    1.1670    0.2750   -3.4830 C   0  0  0  0  0  0  0  0  0  0  0  0
   -0.8770   -1.1540   -0.1560 C   0  0  0  0  0  0  0  0  0  0  0  0
   -2.0740   -0.5990    0.2830 C   0  0  0  0  0  0  0  0  0  0  0  0
   -0.5870    1.6710   -5.5780 C   0  0  0  0  0  0  0  0  0  0  0  0
   -1.2310    2.5100   -6.4730 C   0  0  0  0  0  0  0  0  0  0  0  0
   -2.3690    3.1620   -6.0630 C   0  0  0  0  0  0  0  0  0  0  0  0
   -2.8920    2.9500   -4.7740 C   0  0  0  0  0  0  0  0  0  0  0  0
   -4.7890    3.3410   -3.0390 C   0  0  1  0  0  0  0  0  0  0  0  0
   -4.2560    3.5510   -4.4810 C   0  0  1  0  0  0  0  0  0  0  0  0
   -2.7330   -1.3090    1.7990 S   0  0  0  0  0  0  0  0  0  0  0  0
   -4.3740    5.0610   -4.8680 C   0  0  0  0  0  0  0  0  0  0  0  0
   -5.1990    5.2920   -6.1320 C   0  0  0  0  0  0  0  0  0  0  0  0
   -6.2840    2.9620   -3.1640 C   0  0  0  0  0  0  0  0  0  0  0  0
    2.2050    1.0930   -4.2710 C   0  0  0  0  0  0  0  0  0  0  0  0
    1.7250   -1.3570    6.6190 C   0  0  0  0  0  0  0  0  0  0  0  0
    0.3060   -1.2730    6.6370 C   0  0  0  0  0  0  0  0  0  0  0  0
    1.2140    2.0620    9.6720 C   0  0  0  0  0  0  0  0  0  0  0  0
    2.5010   -0.5410    7.4970 C   0  0  0  0  0  0  0  0  0  0  0  0
   -0.2990   -0.3840    7.4470 N   0  0  0  0  0  0  0  0  0  0  0  0
    2.2900    1.3980    9.2300 C   0  0  0  0  0  0  0  0  0  0  0  0
   -0.0820    1.5150    9.1040 C   0  0  1  0  0  0  0  0  0  0  0  0
    1.8330    0.3660    8.3030 C   0  0  0  0  0  0  0  0  0  0  0  0
    0.4570    0.4060    8.2290 C   0  0  0  0  0  0  0  0  0  0  0  0
    2.3870   -2.2290    5.7290 C   0  0  0  0  0  0  0  0  0  0  0  0
    1.6430   -2.9830    4.7950 C   0  0  0  0  0  0  0  0  0  0  0  0
    0.2080   -2.8740    4.7890 C   0  0  0  0  0  0  0  0  0  0  0  0
   -0.4740   -2.0880    5.7740 C   0  0  0  0  0  0  0  0  0  0  0  0
    3.8080   -2.3210    5.7660 C   0  0  0  0  0  0  0  0  0  0  0  0
    4.4830   -3.1770    4.8940 C   0  0  0  0  0  0  0  0  0  0  0  0
    3.7720   -3.9250    3.9720 C   0  0  0  0  0  0  0  0  0  0  0  0
    2.3850   -3.8200    3.9170 C   0  0  0  0  0  0  0  0  0  0  0  0
    4.5420   -1.5490    6.6690 C   0  0  0  0  0  0  0  0  0  0  0  0
    3.8970   -0.6630    7.5220 C   0  0  0  0  0  0  0  0  0  0  0  0
   -0.5670   -3.5220    3.7960 C   0  0  0  0  0  0  0  0  0  0  0  0
   -1.9570   -3.4770    3.7970 C   0  0  0  0  0  0  0  0  0  0  0  0
   -2.6370   -2.8690    4.8320 C   0  0  0  0  0  0  0  0  0  0  0  0
   -1.9170   -2.1720    5.8080 C   0  0  0  0  0  0  0  0  0  0  0  0
   -2.7800   -1.5650    6.8620 C   0  0  0  0  0  0  0  0  0  0  0  0
   -3.9740   -1.8570    6.9700 O   0  0  0  0  0  0  0  0  0  0  0  0
   -2.7120   -3.9800    2.6350 C   0  0  0  0  0  0  0  0  0  0  0  0
   -3.1380   -5.1310    2.6760 O   0  0  0  0  0  0  0  0  0  0  0  0
   -2.8500   -3.0910    1.4050 C   0  0  0  0  0  0  0  0  0  0  0  0
   -1.0210    1.0130   10.1880 C   0  0  0  0  0  0  0  0  0  0  0  0
    4.9760   -1.1140   -5.3440 C   0  0  0  0  0  0  0  0  0  0  0  0
    5.3110   -2.0320   -6.3650 C   0  0  0  0  0  0  0  0  0  0  0  0
    9.2070   -2.1660   -3.1070 C   0  0  0  0  0  0  0  0  0  0  0  0
    9.5400   -3.0440   -4.1320 C   0  0  0  0  0  0  0  0  0  0  0  0
    5.8960   -0.9340   -4.2870 C   0  0  0  0  0  0  0  0  0  0  0  0
    6.5370   -2.7190   -6.3170 C   0  0  0  0  0  0  0  0  0  0  0  0
    8.0060   -1.4580   -3.1580 C   0  0  0  0  0  0  0  0  0  0  0  0
    8.6620   -3.2290   -5.2020 C   0  0  0  0  0  0  0  0  0  0  0  0
    7.1120   -1.6340   -4.2270 C   0  0  0  0  0  0  0  0  0  0  0  0
    7.4410   -2.5340   -5.2600 C   0  0  0  0  0  0  0  0  0  0  0  0
    3.7330   -0.4300   -5.4050 C   0  0  0  0  0  0  0  0  0  0  0  0
    2.8510   -0.6840   -6.4590 C   0  0  0  0  0  0  0  0  0  0  0  0
    3.1870   -1.5820   -7.4800 C   0  0  0  0  0  0  0  0  0  0  0  0
    4.4130   -2.2530   -7.4210 C   0  0  0  0  0  0  0  0  0  0  0  0
    3.4890    0.4610   -4.3890 O   0  0  0  0  0  0  0  0  0  0  0  0
    2.2190   -1.8630   -8.5920 C   0  0  0  0  0  0  0  0  0  0  0  0
   -5.8950    2.6450    2.1560 H   0  0  0  0  0  0  0  0  0  0  0  0
   -3.9560    0.9910    2.2590 H   0  0  0  0  0  0  0  0  0  0  0  0
   -6.5320    2.4660   -0.4270 H   0  0  0  0  0  0  0  0  0  0  0  0
   -5.4780    3.9020   -0.1280 H   0  0  0  0  0  0  0  0  0  0  0  0
    1.4310   -2.0190   -0.9950 H   0  0  0  0  0  0  0  0  0  0  0  0
    2.7250   -1.0870   -2.7870 H   0  0  0  0  0  0  0  0  0  0  0  0
   -0.3790   -1.9120    0.4500 H   0  0  0  0  0  0  0  0  0  0  0  0
    0.2170    1.0840   -5.9960 H   0  0  0  0  0  0  0  0  0  0  0  0
   -0.8680    2.6180   -7.4920 H   0  0  0  0  0  0  0  0  0  0  0  0
   -2.8800    3.7900   -6.7880 H   0  0  0  0  0  0  0  0  0  0  0  0
   -4.7350    4.3030   -2.5080 H   0  0  0  0  0  0  0  0  0  0  0  0
   -4.9160    2.9760   -5.1530 H   0  0  0  0  0  0  0  0  0  0  0  0
   -3.3850    5.5200   -4.9940 H   0  0  0  0  0  0  0  0  0  0  0  0
   -4.8590    5.6380   -4.0730 H   0  0  0  0  0  0  0  0  0  0  0  0
   -4.7510    4.8370   -7.0170 H   0  0  0  0  0  0  0  0  0  0  0  0
   -6.2150    4.8830   -6.0180 H   0  0  0  0  0  0  0  0  0  0  0  0
   -5.2960    6.3670   -6.3270 H   0  0  0  0  0  0  0  0  0  0  0  0
   -6.4130    1.8780   -3.2690 H   0  0  0  0  0  0  0  0  0  0  0  0
   -6.7610    3.4450   -4.0220 H   0  0  0  0  0  0  0  0  0  0  0  0
   -6.8610    3.2900   -2.2980 H   0  0  0  0  0  0  0  0  0  0  0  0
    1.9090    1.4870   -5.2370 H   0  0  0  0  0  0  0  0  0  0  0  0
    2.3910    1.9850   -3.6530 H   0  0  0  0  0  0  0  0  0  0  0  0
    1.2490    2.9060   10.3510 H   0  0  0  0  0  0  0  0  0  0  0  0
    3.3200    1.6010    9.4800 H   0  0  0  0  0  0  0  0  0  0  0  0
   -0.5680    2.2740    8.4810 H   0  0  0  0  0  0  0  0  0  0  0  0
    5.5660   -3.2590    4.9180 H   0  0  0  0  0  0  0  0  0  0  0  0
    4.2940   -4.5900    3.2920 H   0  0  0  0  0  0  0  0  0  0  0  0
    1.8910   -4.4480    3.1790 H   0  0  0  0  0  0  0  0  0  0  0  0
    5.6260   -1.6250    6.7150 H   0  0  0  0  0  0  0  0  0  0  0  0
    4.5000   -0.0680    8.2020 H   0  0  0  0  0  0  0  0  0  0  0  0
   -0.1030   -4.0580    2.9750 H   0  0  0  0  0  0  0  0  0  0  0  0
   -3.7260   -2.8830    4.8430 H   0  0  0  0  0  0  0  0  0  0  0  0
   -2.3660   -0.8470    7.5780 H   0  0  0  0  0  0  0  0  0  0  0  0
   -3.8500   -3.2470    0.9760 H   0  0  0  0  0  0  0  0  0  0  0  0
   -2.1030   -3.4170    0.6720 H   0  0  0  0  0  0  0  0  0  0  0  0
   -0.5310    0.3140   10.8690 H   0  0  0  0  0  0  0  0  0  0  0  0
   -1.3990    1.8520   10.7880 H   0  0  0  0  0  0  0  0  0  0  0  0
   -1.8870    0.4910    9.7590 H   0  0  0  0  0  0  0  0  0  0  0  0
    9.8850   -2.0260   -2.2690 H   0  0  0  0  0  0  0  0  0  0  0  0
   10.4760   -3.5950   -4.0980 H   0  0  0  0  0  0  0  0  0  0  0  0
    5.6520   -0.2360   -3.4880 H   0  0  0  0  0  0  0  0  0  0  0  0
    6.7880   -3.4170   -7.1110 H   0  0  0  0  0  0  0  0  0  0  0  0
    7.7660   -0.7710   -2.3510 H   0  0  0  0  0  0  0  0  0  0  0  0
    8.9360   -3.9230   -5.9950 H   0  0  0  0  0  0  0  0  0  0  0  0
    1.8830   -0.2040   -6.5170 H   0  0  0  0  0  0  0  0  0  0  0  0
    4.6660   -2.9620   -8.2070 H   0  0  0  0  0  0  0  0  0  0  0  0
    2.7460   -2.1360   -9.5110 H   0  0  0  0  0  0  0  0  0  0  0  0
    1.6150   -0.9770   -8.8160 H   0  0  0  0  0  0  0  0  0  0  0  0
    1.5500   -2.6820   -8.3050 H   0  0  0  0  0  0  0  0  0  0  0  0
  1  2  2  0
  1  4  1  0
  1 10  1  0
  2  5  1  0
  2 13  1  0
  3  6  2  0
  3  7  1  0
  3 76  1  0
  4  8  2  0
  4 19  1  0
  5  9  2  0
  5 24  1  0
  6  8  1  0
  6 77  1  0
  7  9  1  0
  7 78  1  0
  7 79  1  0
  8  9  1  0
 10 11  2  0
 10 14  1  0
 11 12  1  0
 11 17  1  0
 12 13  2  0
 12 20  1  0
 13 23  1  0
 14 15  2  0
 14 18  1  0
 15 16  1  0
 15 80  1  0
 16 17  2  0
 16 81  1  0
 17 30  1  0
 18 19  2  0
 18 82  1  0
 19 26  1  0
 20 21  2  0
 20 83  1  0
 21 22  1  0
 21 84  1  0
 22 23  2  0
 22 85  1  0
 23 25  1  0
 24 25  1  0
 24 29  1  0
 24 86  1  1
 25 27  1  0
 25 87  1  6
 26 58  1  0
 27 28  1  0
 27 88  1  0
 27 89  1  0
 28 90  1  0
 28 91  1  0
 28 92  1  0
 29 93  1  0
 29 94  1  0
 29 95  1  0
 30 74  1  0
 30 96  1  0
 30 97  1  0
 31 32  2  0
 31 34  1  0
 31 40  1  0
 32 35  1  0
 32 43  1  0
 33 36  2  0
 33 37  1  0
 33 98  1  0
 34 38  2  0
 34 49  1  0
 35 39  2  0
 36 38  1  0
 36 99  1  0
 37 39  1  0
 37 59  1  0
 37100  1  6
 38 39  1  0
 40 41  2  0
 40 44  1  0
 41 42  1  0
 41 47  1  0
 42 43  2  0
 42 50  1  0
 43 53  1  0
 44 45  2  0
 44 48  1  0
 45 46  1  0
 45101  1  0
 46 47  2  0
 46102  1  0
 47103  1  0
 48 49  2  0
 48104  1  0
 49105  1  0
 50 51  2  0
 50106  1  0
 51 52  1  0
 51 56  1  0
 52 53  2  0
 52107  1  0
 53 54  1  0
 54 55  2  0
 54108  1  0
 56 57  2  0
 56 58  1  0
 58109  1  0
 58110  1  0
 59111  1  0
 59112  1  0
 59113  1  0
 60 61  1  0
 60 64  2  0
 60 70  1  0
 61 65  2  0
 61 73  1  0
 62 63  2  0
 62 66  1  0
 62114  1  0
 63 67  1  0
 63115  1  0
 64 68  1  0
 64116  1  0
 65 69  1  0
 65117  1  0
 66 68  2  0
 66118  1  0
 67 69  2  0
 67119  1  0
 68 69  1  0
 70 71  2  0
 70 74  1  0
 71 72  1  0
 71120  1  0
 72 73  2  0
 72 75  1  0
 73121  1  0
 75122  1  0
 75123  1  0
 75124  1  0
M  END
