57

C      48.544550000000001     48.733299999999986     47.021099999999990
C      49.528050000000007     49.171300000000002     48.097500000000004
C      43.552850000000007     47.240499999999997     52.479599999999998
C      47.267750000000007     48.299800000000005     47.320600000000006
C      49.058750000000003     49.473699999999994     49.396700000000003
C      43.822149999999993     47.436700000000002     50.979599999999998
C      45.541750000000008     48.043199999999999     49.030400000000007
C      47.187950000000001     49.100899999999996     51.097100000000005
C      46.814450000000008     48.595600000000005     48.676300000000005
C      47.645949999999999     49.160900000000012     49.721399999999996
C      45.042249999999996     47.973600000000005     50.440900000000006
C      46.039349999999999     48.480400000000003     51.348899999999993
C      48.899850000000001     48.687799999999996     45.604499999999994
C      50.088850000000008     49.383799999999994     45.195900000000002
C      51.054249999999996     49.713399999999993     46.192200000000007
C      50.765650000000008     49.664900000000003     47.706799999999994
C      48.259349999999998     47.978700000000003     44.599499999999999
C      48.806950000000001     48.075199999999995     43.135200000000005
C      49.711250000000007     49.298300000000012     42.764299999999999
C      50.246349999999993     49.914600000000007     43.790900000000001
C      47.117050000000006     47.253199999999993     45.059699999999999
C      46.432050000000004     47.585200000000000     46.239100000000001
C      45.105050000000006     47.157399999999996     46.616499999999995
C      44.730750000000000     47.447599999999994     47.992899999999999
C      52.334649999999996     50.089699999999993     45.731199999999994
C      53.126450000000006     50.719700000000003     46.776100000000007
C      52.780349999999999     50.837400000000002     48.189100000000003
C      51.726450000000000     50.137500000000003     48.703399999999995
C      50.155550000000005     49.623300000000000     50.398999999999994
C      51.460350000000005     49.909700000000001     50.034799999999997
C      43.383849999999995     46.959400000000002     48.406799999999997
C      42.937950000000001     47.013000000000005     49.784100000000002
C      44.600350000000006     46.605699999999999     53.262700000000002
C      44.665450000000007     46.196600000000004     45.669199999999996
C      49.378749999999997     45.566199999999995     42.728500000000004
C      49.777450000000002     46.800600000000003     43.154800000000002
H      44.512749999999997     46.307000000000002     54.255400000000002
H      46.015450000000001     48.149500000000003     52.439500000000002
H      47.931550000000001     49.497100000000003     51.886999999999993
H      48.073049999999995     47.957700000000003     42.290699999999994
H      49.808349999999990     49.630300000000005     41.744599999999998
H      51.270550000000000     50.464300000000009     43.425300000000000
H      46.663849999999996     46.579599999999999     44.267000000000003
H      52.754750000000001     49.826499999999996     44.852799999999995
H      53.937349999999995     50.849600000000009     46.209399999999995
H      53.526550000000000     51.211399999999998     48.591799999999999
H      49.710849999999994     49.922799999999995     51.323100000000004
H      52.020550000000000     50.037599999999998     50.794400000000003
H      42.921450000000007     46.508600000000001     47.457100000000004
H      42.062650000000005     47.321899999999999     50.439299999999996
H      45.478149999999999     46.179999999999993     52.682600000000001
H      42.732450000000000     47.731300000000005     53.089099999999995
H      43.521950000000004     46.284700000000001     45.480499999999999
H      45.395250000000004     45.763199999999998     44.733899999999998
H      50.078350000000000     44.788600000000002     42.228000000000002
H      48.470150000000004     45.503000000000000     42.280800000000006
H      50.722849999999994     46.805899999999994     43.548200000000001
