5

C      48.012949999999996     47.764299999999992     47.781549999999996
H      49.011550000000000     47.493299999999998     47.200450000000004
H      46.988450000000000     47.072200000000002     47.694249999999997
H      47.410550000000001     48.927799999999998     47.678049999999999
H      48.506050000000002     48.262200000000000     48.799549999999996
