8

C      47.986949999999993     47.033499999999989     47.982954999999997
C      47.763050000000007     48.512899999999995     48.344004999999996
H      49.074950000000001     46.852700000000006     48.096674999999998
H      47.218950000000007     46.497599999999998     48.476775000000004
H      48.227450000000005     46.465499999999999     47.126914999999997
H      46.925049999999999     48.709299999999992     48.873085000000003
H      47.376050000000006     49.534500000000001     47.878475000000002
H      48.687250000000006     48.947899999999997     48.679935000000000
