5

C      47.936314999999993     48.028749999999995     48.229149999999990
H      49.043025000000000     48.866950000000003     48.514050000000005
H      47.913335000000004     47.133049999999997     48.913249999999998
H      46.956975000000000     48.024349999999998     47.750949999999996
H      48.241135000000000     47.920049999999996     47.086750000000002
