22

C      46.339099999999995     49.685699999999997     48.589349999999996
C      46.426400000000001     48.582100000000004     49.710350000000005
C      47.342299999999994     49.924500000000002     47.570049999999995
C      46.730599999999995     47.210000000000001     48.890149999999991
C      48.097300000000004     48.576700000000002     47.220849999999999
C      47.824500000000000     47.316000000000003     47.856949999999998
C      49.130300000000005     48.646999999999998     46.290750000000003
C      47.898399999999995     46.158500000000004     46.862150000000000
C      49.846900000000005     47.442700000000002     45.983249999999998
C      49.341300000000004     46.166100000000000     46.482349999999997
H      46.189499999999995     50.680600000000005     49.222849999999994
H      45.252600000000001     49.696199999999997     48.233249999999998
H      45.552700000000002     48.588799999999999     50.296049999999994
H      46.999799999999993     49.020899999999997     50.501050000000006
H      47.035399999999996     50.292700000000004     46.608649999999997
H      48.065699999999993     50.713400000000000     47.930149999999998
H      45.817099999999996     46.617800000000003     48.603049999999996
H      47.477099999999993     46.570300000000003     49.531549999999996
H      49.370599999999996     49.716999999999999     45.920349999999999
H      47.142399999999995     45.286600000000000     46.960849999999994
H      50.747399999999999     47.658300000000004     45.498949999999994
H      49.866900000000001     45.449400000000004     46.856250000000003
