5

C      48.084092499999997     48.287699999999987     47.718849999999989
H      48.397172499999996     47.122199999999999     47.335850000000001
H      48.845752500000003     48.877800000000001     47.149149999999999
H      48.476192499999996     48.439399999999999     48.850850000000001
H      47.154247499999997     48.708499999999994     47.528050000000000
