22

C      46.689499999999995     48.498849999999983     49.955699999999993
C      47.257899999999999     47.028449999999992     50.004699999999993
C      47.852600000000002     49.298549999999992     49.258499999999998
C      47.502599999999994     46.371249999999989     48.364799999999995
C      48.681400000000004     48.680549999999997     48.118699999999997
C      48.438200000000002     47.295349999999999     47.643499999999996
C      49.562899999999999     49.497649999999993     47.554400000000001
C      48.641600000000004     47.076049999999995     46.284399999999998
C      50.143800000000006     48.967949999999988     46.355100000000000
C      49.708800000000004     47.818549999999988     45.747699999999995
H      46.516900000000000     48.526049999999998     51.091600000000000
H      45.463000000000001     48.446349999999995     49.200699999999998
H      46.421300000000002     46.470450000000000     50.569699999999990
H      48.310900000000004     46.721949999999993     50.247000000000007
H      47.489500000000000     50.397250000000000     48.977199999999996
H      48.511600000000008     49.439650000000000     50.108699999999992
H      46.427300000000002     45.929549999999992     48.161499999999997
H      48.191700000000004     45.446050000000000     48.504399999999997
H      49.483200000000004     50.553950000000000     47.803300000000000
H      48.465000000000003     46.229849999999999     45.694800000000001
H      50.536999999999999     49.818249999999992     45.719499999999996
H      50.210999999999991     47.599049999999991     44.908400000000000
