5

C      48.110799999999998     48.028799999999997     48.064949999999996
H      47.196100000000001     47.882999999999996     48.819949999999999
H      48.803899999999999     47.380700000000004     47.672150000000002
H      47.603099999999998     48.562200000000004     47.180050000000001
H      48.738600000000005     48.619299999999996     48.598950000000009
