58

C      45.962549999999993     45.361649999999990     53.162949999999995
C      52.606949999999998     49.518349999999998     47.173849999999995
C      45.602149999999995     45.278750000000002     51.799950000000003
C      52.313149999999993     50.194949999999999     48.444049999999997
C      47.069949999999992     46.266850000000005     53.287650000000006
C      51.601450000000000     49.230850000000004     46.093550000000000
C      51.058749999999989     49.892250000000004     49.040749999999996
C      49.263949999999994     49.407349999999994     45.884949999999996
C      48.063949999999991     48.629550000000002     46.209550000000000
C      49.050749999999994     47.132550000000009     52.319650000000003
C      49.572350000000000     47.688749999999999     51.120049999999999
C      47.297550000000001     47.172250000000005     48.222950000000004
C      47.703949999999992     46.756349999999998     52.028849999999998
C      50.420349999999999     49.429950000000005     46.798949999999998
C      48.352149999999995     47.827150000000003     47.453650000000003
C      47.200649999999996     46.389949999999999     50.823749999999997
C      50.087750000000000     49.200050000000005     48.232549999999996
C      49.123249999999999     47.592250000000007     49.768049999999995
C      47.790449999999993     46.910550000000001     49.584250000000004
C      49.229549999999989     48.285750000000007     48.494149999999998
C      53.349649999999997     50.733649999999997     49.368350000000000
C      43.029550000000000     49.492049999999992     46.896350000000005
C      43.452150000000003     50.530149999999999     45.837250000000004
C      45.851649999999992     48.867649999999998     45.608650000000004
C      43.819350000000000     49.843750000000000     44.483449999999998
C      45.237449999999995     49.386949999999999     44.377050000000004
C      43.362049999999996     50.303849999999997     43.269150000000003
C      45.827849999999998     49.086249999999993     43.022650000000006
C      44.005549999999999     50.358849999999990     42.025150000000004
C      45.017449999999997     49.439549999999997     41.859150000000007
H      45.438649999999996     44.818449999999999     53.934450000000005
H      53.587949999999992     49.389649999999996     46.716749999999998
H      44.745049999999992     44.498750000000001     51.788149999999995
H      51.777049999999988     49.438650000000003     44.992650000000005
H      49.579849999999993     47.057850000000002     53.115649999999995
H      50.448049999999995     48.463050000000010     51.083750000000002
H      46.448049999999995     46.742649999999998     47.969950000000004
H      54.026949999999999     51.501249999999999     49.292949999999998
H      49.036249999999995     50.262850000000000     44.131549999999997
H      46.959049999999991     46.302750000000003     55.143750000000004
H      49.993849999999995     50.677849999999999     50.421950000000002
H      43.022549999999995     50.129950000000008     47.867550000000001
H      43.703949999999992     48.678449999999998     46.589949999999995
H      41.973050000000001     49.251750000000001     46.685949999999998
H      44.380849999999995     50.881549999999990     46.460150000000006
H      42.469949999999997     50.915049999999994     45.500549999999997
H      45.465450000000004     47.794449999999998     45.643549999999998
H      45.880150000000000     49.520150000000001     46.506750000000004
H      42.424849999999992     50.797950000000000     43.439850000000000
H      46.904349999999994     48.946550000000002     42.922450000000005
H      43.342749999999995     50.778050000000000     41.221950000000000
H      45.454349999999991     49.687950000000001     40.856249999999996
N      46.074249999999992     45.698349999999991     50.699850000000005
O      53.454749999999990     49.895049999999998     50.245049999999999
O      47.266349999999989     48.503149999999991     45.179549999999999
O      47.633449999999996     46.456149999999994     54.538750000000000
O      50.870549999999994     50.225149999999999     50.375250000000001
O      49.615049999999997     50.342249999999993     44.984550000000006
