5

C      47.451699999999995     47.513849999999991     48.434949999999994
C      47.780000000000001     48.488450000000000     47.606349999999999
H      48.798299999999998     48.524549999999991     46.808149999999998
H      47.338999999999999     49.403149999999997     47.306249999999999
O      47.201700000000002     46.596850000000003     49.191850000000002
