46

C      46.524749999999990     49.658349999999984     49.791717999999989
C      48.010849999999991     49.535550000000001     50.097118000000002
C      46.983350000000002     47.139949999999999     45.342217999999995
C      48.346149999999994     46.733949999999993     45.902318000000001
C      46.045649999999995     49.040049999999994     48.505518000000002
C      48.827950000000001     48.730549999999994     49.301818000000004
C      46.189149999999998     47.672749999999994     46.422118000000005
C      48.991249999999994     47.221049999999991     47.035518000000003
C      46.859949999999998     48.150449999999992     47.669617999999993
C      48.179950000000005     48.035749999999993     47.962417999999992
C      45.809049999999999     50.176249999999996     50.872917999999991
C      46.296849999999999     50.555350000000004     52.140318000000001
C      48.393150000000006     50.168549999999996     51.345217999999996
C      46.555250000000001     46.860150000000004     43.954917999999999
C      47.445949999999996     46.377449999999996     42.933917999999998
C      48.624250000000004     45.833550000000002     43.513718000000004
C      49.086550000000003     46.083550000000002     44.813217999999999
C      44.839950000000002     48.947050000000004     47.794518000000004
C      44.876449999999998     48.246549999999999     46.545718000000001
C      50.145949999999999     48.735249999999994     49.393617999999996
C      50.601050000000001     49.639749999999992     50.445218000000004
C      49.663849999999996     50.113349999999997     51.566718000000002
C      51.779349999999994     48.947949999999992     50.996618000000005
C      45.461349999999996     51.428150000000002     53.017317999999996
C      45.119749999999996     46.852750000000000     43.466218000000005
C      49.348050000000001     44.455649999999991     42.998718000000004
H      50.039450000000002     46.954349999999991     47.325218000000000
H      47.208050000000000     45.711550000000003     41.948017999999998
H      49.986350000000002     45.645749999999992     45.374518000000002
H      43.806449999999998     49.107649999999992     48.180917999999998
H      44.076049999999995     47.918549999999996     45.900718000000005
H      44.666150000000002     50.047449999999998     50.879117999999998
H      50.869850000000000     48.091949999999997     49.000818000000002
H      50.157749999999993     49.982749999999996     52.627217999999992
H      51.695949999999996     48.131050000000002     51.952217999999995
H      52.193550000000002     48.910749999999993     50.026118000000004
H      44.612849999999995     45.838049999999996     43.219618000000004
H      44.442949999999996     47.526550000000000     43.892417999999999
H      45.691850000000002     51.307949999999991     54.051982000000002
H      44.339649999999999     51.217449999999999     52.959917999999995
H      45.951650000000001     52.474550000000008     53.089717999999998
H      45.437749999999994     47.750050000000002     42.734217999999991
H      50.199150000000003     44.648049999999998     43.502317999999995
H      48.731250000000003     43.525449999999992     42.809418000000001
H      49.889449999999997     44.660049999999998     42.026317999999996
N      47.535449999999997     50.683650000000000     52.302417999999996
