16

C      48.555349999999990     45.929749999999984     47.314549999999990
C      50.299350000000004     48.461849999999998     48.645550000000000
C      48.150850000000005     47.192149999999998     47.847450000000009
C      48.870649999999998     48.353650000000002     48.412250000000000
C      46.700450000000004     47.371150000000000     48.097049999999996
C      48.004450000000006     49.394750000000002     49.024950000000004
C      45.970950000000002     48.353849999999994     48.547849999999997
C      46.588549999999998     49.549750000000003     48.906950000000009
H      47.981849999999994     45.540149999999997     46.490650000000002
H      49.533349999999999     45.790750000000003     47.044049999999999
H      50.998549999999994     48.290849999999992     49.374250000000004
H      50.956149999999994     48.151049999999998     47.675749999999994
H      45.798450000000003     46.543650000000000     47.893749999999997
H      48.577150000000003     50.116849999999999     49.509349999999998
H      45.001450000000006     48.416150000000002     48.420549999999992
H      46.023049999999998     50.459850000000003     49.303249999999998
