6

C      48.454249999999988     48.189899999999987     47.567249999999987
C      47.811049999999994     48.155799999999999     48.604950000000002
H      48.314349999999997     47.770099999999999     49.435950000000005
H      46.549349999999997     47.880199999999995     48.787850000000006
H      48.062449999999991     48.476900000000001     46.564049999999995
H      49.450650000000003     47.523099999999999     47.530850000000001
