6

C      47.296899999999994     47.974249999999998     48.318449999999999
C      48.468400000000003     47.921750000000003     47.583749999999995
H      46.472099999999998     48.372449999999994     47.752650000000003
H      47.547499999999999     47.627550000000006     49.445949999999996
H      49.527900000000002     47.837850000000003     48.199749999999995
H      48.552800000000005     48.239950000000000     46.554050000000004
