6

C      48.002799999999993     47.307449999999989     47.780949999999997
C      48.113200000000006     48.680150000000012     48.253350000000012
H      47.557299999999998     46.522850000000005     48.168550000000010
H      48.073700000000002     47.011650000000003     46.713750000000005
H      48.030000000000001     48.958650000000006     49.286249999999995
H      48.442700000000002     49.477149999999995     47.643150000000006
