22

C      45.956229999999998     48.319199999999995     46.986649999999997
C      47.027730000000005     49.102199999999996     46.163150000000002
C      46.168100000000010     48.610799999999998     48.512349999999998
C      48.276720000000005     48.454399999999993     46.550650000000005
C      47.409330000000004     47.612600000000000     48.839950000000002
C      48.418000000000006     47.618300000000005     47.832450000000009
C      47.686270000000007     46.670900000000003     49.862750000000005
C      49.500140000000002     46.780500000000004     47.806249999999991
C      49.105339999999998     46.147400000000005     49.901150000000001
C      49.918630000000000     45.950800000000001     48.835350000000005
H      45.696840000000002     47.221000000000004     47.099249999999998
H      45.019350000000003     48.626099999999994     46.635249999999999
H      47.243520000000004     50.078000000000003     46.513850000000005
H      46.652900000000002     49.361099999999993     45.170249999999996
H      46.250030000000010     49.630899999999997     48.763049999999993
H      45.154580000000003     48.281000000000006     49.152049999999988
H      49.142810000000004     49.453999999999994     46.617450000000005
H      49.032960000000003     48.308899999999994     45.652850000000001
H      46.903330000000004     46.943299999999994     50.565150000000003
H      50.263390000000001     46.862700000000004     46.996150000000000
H      49.475179999999995     45.921999999999997     50.829750000000004
H      50.980649999999997     45.940899999999999     49.092849999999999
