59

C      47.415003999999989     52.965349999999994     44.020599999999995
C      47.455883999999998     48.538349999999994     47.532600000000002
C      47.100983999999997     47.804949999999998     48.727899999999998
C      48.889294000000000     44.139949999999999     46.521799999999999
C      47.567253999999998     47.798050000000003     46.470100000000002
C      46.659154000000001     46.363550000000004     48.681899999999999
C      48.828074000000001     45.545549999999999     46.031700000000001
C      48.179853999999999     44.060150000000000     47.868399999999994
C      47.686543999999998     46.303049999999999     46.541899999999998
C      47.349233999999996     45.587249999999997     47.742400000000004
C      47.798693999999998     49.869050000000001     47.733300000000000
C      47.065494000000001     50.618049999999997     48.704000000000008
C      47.010933999999999     49.809649999999998     50.053100000000001
C      47.086393999999999     48.302849999999999     50.114200000000011
C      48.025914000000000     50.668250000000000     46.537300000000002
C      47.991044000000002     52.064549999999997     46.241799999999998
C      47.332073999999999     52.701349999999998     47.259300000000010
C      46.743834000000000     51.992249999999999     48.420200000000008
C      47.427253999999998     48.486950000000000     45.200999999999993
C      47.944794000000002     49.802949999999996     45.234000000000009
C      46.040763999999996     45.896149999999999     49.912800000000004
C      47.252744000000000     42.874350000000000     47.972200000000001
C      49.982054000000005     43.388649999999998     46.144300000000001
C      47.672623999999999     47.647250000000000     43.979399999999998
C      48.673304000000002     52.752150000000000     44.970600000000005
C      49.991743999999997     46.509250000000002     45.729500000000002
C      49.372684000000000     43.993250000000003     48.760199999999998
C      47.561533999999995     46.534649999999999     51.859400000000008
C      47.255753999999996     47.724649999999997     51.448300000000003
H      47.077433999999997     53.751649999999998     44.556500000000000
H      47.833014000000006     52.877749999999999     42.996499999999997
H      47.607743999999997     50.312649999999998     50.811700000000002
H      47.530413999999993     53.605249999999998     47.738100000000003
H      46.259624000000002     52.710049999999995     49.033799999999999
H      49.026223999999999     53.854550000000003     44.830300000000001
H      48.921694000000002     50.150549999999996     44.677599999999998
H      45.211058999999999     44.745750000000001     49.892699999999998
H      45.072355999999999     49.454549999999998     50.889400000000002
H      47.170043999999997     42.145449999999997     47.015200000000007
H      47.689033999999999     42.521149999999999     48.853900000000003
H      46.145783999999999     43.088049999999996     47.944900000000004
H      50.371313999999998     43.289450000000002     45.007800000000003
H      50.044593999999989     42.356049999999996     46.280700000000010
H      46.928193999999998     46.784450000000000     44.218800000000002
H      48.557813999999993     47.156950000000002     43.445100000000004
H      46.807843999999996     48.177350000000004     43.220300000000002
H      49.430943999999997     52.219749999999998     44.387100000000004
H      46.731394000000002     52.105750000000000     44.217600000000004
H      50.927644000000001     45.904150000000001     45.255200000000002
H      49.765673999999990     47.478349999999999     45.132700000000000
H      50.014333999999991     46.726849999999999     46.856700000000004
H      50.270213999999996     43.424149999999997     48.351500000000001
H      49.459354000000005     44.938350000000000     49.116000000000000
H      49.113284000000000     43.321849999999998     49.668100000000003
H      47.842944000000003     46.180549999999997     53.003500000000003
H      47.082723999999999     48.281350000000003     52.441900000000004
H      45.399487999999998     46.780549999999998     50.626600000000010
O      47.193694000000001     45.578049999999998     51.148099999999999
O      45.618724000000000     50.224049999999998     50.597200000000001
