6

C      48.580299999999987     47.745749999999987     47.623749999999987
C      47.560900000000004     48.100250000000003     48.422049999999999
H      49.460200000000000     47.860349999999997     48.277850000000001
H      48.053600000000003     47.223550000000003     46.705749999999995
H      46.539800000000000     47.664749999999998     48.308449999999993
H      47.569400000000002     48.776449999999997     49.294250000000005
