6

C      47.762699999999995     48.367549999999994     48.422649999999990
C      47.985999999999997     47.668550000000003     47.315349999999995
H      47.515599999999999     47.816850000000002     49.644750000000002
H      47.722000000000001     49.431750000000001     48.303049999999999
H      48.052600000000005     46.568249999999999     47.450350000000000
H      48.484400000000001     48.136450000000004     46.355249999999998
