47

C      48.516949999999994     47.921149999999997     47.439349999999997
C      48.736049999999999     49.075150000000008     46.508850000000002
C      49.468950000000000     45.282150000000001     43.899950000000004
C      49.081150000000001     46.623450000000005     47.331650000000003
C      49.541949999999993     48.822150000000008     45.337250000000004
C      49.197150000000001     45.039650000000009     45.244950000000003
C      49.829450000000001     46.749850000000009     43.828350000000000
C      49.167850000000008     46.289349999999999     45.954250000000002
C      49.659050000000001     47.460650000000001     45.004850000000005
C      47.906649999999999     48.464050000000000     48.641950000000001
C      47.283850000000001     49.852550000000008     48.823450000000008
C      47.338250000000002     50.893749999999997     47.765649999999994
C      48.013150000000003     50.350450000000009     46.684350000000002
C      47.714449999999999     47.638649999999998     49.740250000000003
C      47.890349999999998     48.503850000000000     50.941649999999996
C      47.294150000000002     49.855150000000009     51.041250000000005
C      46.934150000000002     50.612049999999996     49.895850000000010
C      49.636249999999997     45.620649999999998     48.305850000000007
C      48.135750000000002     46.158349999999999     50.067049999999995
C      49.469349999999999     49.835350000000005     44.383050000000004
C      48.916649999999997     51.266450000000006     44.468250000000005
C      47.625749999999996     51.111549999999994     45.356350000000006
C      48.928149999999995     44.658150000000006     42.671450000000000
C      47.394750000000002     50.360450000000000     52.520750000000007
C      45.976050000000001     50.368549999999999     53.084150000000001
C      49.975749999999998     44.663849999999996     49.086550000000003
H      48.783650000000002     44.147649999999999     45.705750000000002
H      49.407049999999991     46.924850000000006     42.789850000000001
H      46.912849999999999     52.081350000000000     47.671550000000011
H      47.741149999999998     48.076350000000005     51.894250000000000
H      49.336149999999996     46.520150000000001     50.237150000000000
H      47.665450000000000     45.970950000000002     50.942050000000002
H      47.805149999999998     45.619550000000004     49.227650000000004
H      50.041249999999998     49.429550000000006     43.561450000000001
H      49.283450000000009     52.254850000000005     44.033550000000005
H      47.344349999999999     52.118650000000002     45.590450000000004
H      46.964849999999998     50.393050000000002     44.777250000000002
H      48.438350000000000     45.455650000000006     42.134850000000000
H      45.423749999999998     50.787750000000003     52.213049999999996
H      45.740549999999999     49.452849999999998     53.559250000000006
H      46.615450000000003     52.512549999999990     50.361050000000006
H      50.576250000000002     44.679850000000002     49.964850000000006
H      49.089849999999991     43.768450000000001     49.140650000000008
H      46.134349999999998     51.201349999999991     53.865150000000000
O      48.519050000000000     43.487450000000010     42.542950000000005
O      48.343449999999997     50.427250000000001     53.213250000000002
O      46.182949999999998     51.725750000000005     49.898849999999996
