22

C      45.749149999999993     48.034199999999998     47.895099999999985
C      46.215849999999996     49.556199999999997     47.787599999999998
C      46.613050000000001     47.206600000000009     47.090699999999998
C      47.677250000000001     50.043700000000008     48.273700000000005
C      47.847949999999997     47.687900000000006     47.922299999999993
C      48.579749999999990     48.817300000000010     48.467399999999998
C      48.703649999999996     46.448000000000008     47.847899999999996
C      49.875749999999996     48.669500000000006     48.953299999999999
C      49.784849999999999     46.314100000000003     48.741699999999994
C      50.412149999999997     47.425400000000003     49.323099999999997
H      46.089649999999992     47.752300000000005     48.970199999999991
H      44.650250000000000     47.703300000000006     48.153999999999996
H      45.385649999999998     50.177000000000007     48.234999999999999
H      46.098550000000003     49.752600000000008     46.716099999999997
H      46.908650000000009     47.746300000000005     46.034899999999993
H      46.370249999999999     46.219000000000008     47.231499999999997
H      47.325149999999994     50.524100000000011     49.297699999999992
H      48.316050000000004     50.687599999999996     47.713499999999996
H      48.420649999999995     45.637700000000009     47.258299999999991
H      50.608450000000005     49.424500000000009     48.797700000000006
H      50.302349999999997     45.312400000000004     49.062500000000000
H      51.349750000000000     47.332400000000007     49.965100000000007
