18

C      48.904550000000000     46.243679999999991     49.701749999999990
C      46.677050000000001     48.786990000000003     49.667950000000005
C      48.570650000000008     47.183859999999996     48.574550000000002
C      48.047850000000004     48.567250000000001     48.968750000000000
C      48.941350000000007     46.596980000000002     47.264250000000004
C      48.975850000000001     49.703370000000000     49.081050000000005
C      49.258350000000000     47.464070000000007     46.252650000000003
H      49.219050000000003     46.910510000000002     45.354349999999997
H      48.433349999999997     45.600490000000001     50.619150000000005
H      49.989049999999999     49.429770000000005     48.889049999999997
H      49.668050000000001     46.747690000000006     50.486050000000006
H      49.900150000000004     45.807380000000002     49.500349999999997
H      46.464649999999999     49.814570000000003     49.277150000000006
H      46.010950000000001     48.122280000000003     48.920450000000002
H      49.212750000000007     45.479230000000001     47.206549999999993
H      48.706949999999999     50.520769999999999     48.332350000000005
H      49.596849999999996     48.585030000000003     46.262150000000005
H      46.434450000000005     48.633009999999999     50.645650000000003
