6

C      47.861349999999995     47.555749999999989     48.452649999999991
C      48.596249999999998     47.822350000000000     47.503750000000004
H      48.420950000000005     47.353349999999992     49.461649999999999
H      46.773550000000000     47.210449999999994     48.142850000000003
H      48.297950000000000     47.383949999999999     46.538350000000001
H      49.226450000000000     48.789550000000006     47.318550000000009
