39

C      48.792199999999994     49.758099999999985     46.986999999999995
C      48.306299999999993     50.916300000000007     47.707999999999998
C      47.628599999999992     47.204999999999998     50.833800000000011
C      47.277500000000003     48.347400000000007     51.459400000000002
C      49.001599999999996     48.469300000000004     47.760700000000000
C      48.329899999999995     50.974000000000004     49.283300000000011
C      48.149799999999999     47.210200000000000     49.541400000000010
C      47.343699999999998     49.731700000000004     51.084700000000012
C      48.290399999999991     48.556399999999996     49.065100000000001
C      47.989400000000003     49.784900000000007     49.863100000000003
C      48.897300000000001     49.866100000000003     45.623199999999997
C      48.450099999999992     51.030900000000003     44.975600000000000
C      48.197699999999998     52.154800000000009     45.664800000000000
C      47.952399999999997     52.092700000000008     47.052400000000006
C      49.309899999999985     47.395200000000003     47.021699999999996
C      49.478700000000003     47.443200000000004     45.475200000000001
C      49.311599999999999     48.609999999999999     44.831100000000006
C      47.467500000000001     45.916600000000003     51.791200000000003
C      48.547299999999993     45.120599999999996     52.290600000000012
C      48.127200000000002     43.544899999999998     52.079500000000010
C      49.196699999999993     49.073200000000000     43.323499999999996
H      47.085099999999997     48.272599999999997     52.564800000000005
H      48.470799999999997     51.785800000000009     49.906400000000005
H      48.618399999999994     46.294399999999996     49.111500000000007
H      47.221400000000003     50.518299999999996     51.744700000000009
H      48.372199999999992     51.042900000000003     43.868700000000004
H      47.853999999999999     53.107200000000006     45.236000000000004
H      47.859099999999998     52.934200000000004     47.785899999999998
H      49.612899999999996     46.519400000000005     44.895700000000005
H      49.628799999999998     46.362499999999997     47.579700000000003
H      49.177499999999995     45.329099999999997     51.527400000000000
H      48.844200000000001     45.810000000000002     53.187600000000003
H      47.497100000000003     43.581500000000005     51.118700000000004
H      47.547499999999999     43.438000000000002     53.007600000000011
H      48.981299999999990     42.892799999999994     52.129600000000011
H      48.190600000000003     49.180700000000002     43.458200000000005
H      49.658900000000003     48.266400000000004     42.812399999999997
H      49.589799999999983     50.040700000000001     42.929200000000009
O      46.341099999999997     45.556399999999996     51.989600000000010
