5

C      47.167949999999990     48.149049999999988     48.097849999999994
C      48.304650000000002     48.266750000000002     48.776149999999994
H      46.867449999999998     48.001649999999998     47.066049999999997
H      49.365249999999996     48.243049999999997     48.933950000000003
H      46.634750000000004     47.733249999999998     48.832450000000001
