8

C      47.552749999999996     48.673299999999998     48.039249999999996
C      48.484750000000005     47.501300000000001     47.925850000000004
H      47.619250000000008     49.192200000000007     49.057150000000000
H      47.852350000000001     49.405499999999996     47.326250000000009
H      48.403950000000009     47.088800000000006     46.942850000000000
H      47.847450000000002     46.594500000000004     48.444250000000004
H      49.499150000000000     47.885900000000007     47.720750000000002
H      46.500850000000000     48.432100000000005     48.213250000000009
