50

C      44.996099999999998     46.108849999999990     44.026599999999988
C      45.365800000000014     45.388849999999991     45.287099999999995
C      47.763400000000011     50.126350000000002     45.349100000000007
C      45.441000000000010     47.512549999999990     43.615300000000005
C      46.369400000000006     46.330349999999996     46.088300000000004
C      46.945400000000014     49.562849999999997     44.266900000000007
C      47.891400000000004     48.131150000000005     46.508200000000002
C      46.459400000000009     48.253749999999997     44.361300000000000
C      47.024200000000000     47.530549999999991     45.502399999999994
C      44.878100000000003     48.255549999999999     42.646299999999997
C      45.252500000000005     49.668149999999997     42.418000000000006
C      46.061400000000006     50.380049999999997     43.372399999999999
C      46.818500000000007     46.130849999999995     47.354200000000006
C      48.060100000000013     47.061550000000011     47.544100000000014
C      44.977600000000010     50.282150000000001     41.058300000000003
C      43.592600000000004     45.812249999999992     43.900499999999994
C      49.173400000000008     47.115650000000002     49.714699999999993
C      48.034900000000000     47.762550000000005     49.124200000000002
C      52.125000000000007     46.744150000000005     51.996400000000008
C      49.933200000000006     47.828249999999997     50.377799999999993
C      50.863300000000010     47.315049999999999     52.716499999999996
C      49.735700000000008     47.752949999999998     51.911800000000014
C      50.511300000000006     47.188949999999991     54.037000000000006
C      48.497400000000006     48.228250000000003     52.425400000000010
C      49.249900000000004     47.804749999999999     54.577500000000001
C      48.315400000000004     48.343350000000001     53.746300000000005
H      46.026400000000002     44.522250000000000     44.929699999999997
H      48.248800000000010     51.259149999999991     45.243399999999994
H      44.271900000000009     47.805349999999990     41.816500000000005
H      46.003000000000007     51.312949999999987     43.997699999999995
H      46.464000000000006     45.438350000000000     48.265400000000000
H      49.070100000000004     46.626849999999990     47.453699999999998
H      44.009100000000004     49.929349999999999     40.666700000000006
H      44.996099999999998     51.477750000000000     41.253399999999999
H      45.969400000000014     50.093650000000011     40.446500000000000
H      42.806400000000004     46.497750000000011     43.590800000000002
H      43.116000000000007     44.818049999999999     43.791300000000007
H      49.399800000000006     46.028449999999992     49.677000000000007
H      47.108500000000014     47.510149999999996     49.772999999999996
H      52.110500000000009     45.562249999999992     51.649400000000000
H      50.624700000000011     48.609849999999994     49.998900000000006
H      53.193599999999996     47.198049999999995     52.384799999999998
H      52.118200000000009     47.263750000000002     51.020200000000003
H      48.130800000000015     48.814049999999995     48.801599999999993
H      51.453700000000005     46.783349999999999     54.615000000000009
H      47.631300000000017     48.615049999999997     51.945899999999995
H      48.956800000000008     47.521549999999991     55.553500000000000
H      47.191700000000004     48.592950000000002     54.197900000000004
H      44.638100000000009     45.145650000000003     46.034700000000001
N      48.159700000000008     49.371650000000002     46.341800000000006
