6

C      47.892349999999986     47.509299999999996     47.437149999999995
C      47.899349999999998     48.316800000000008     48.652450000000002
H      48.815449999999998     46.819499999999998     47.223550000000003
H      48.391450000000006     48.196899999999999     46.692250000000001
H      48.695750000000004     48.161799999999992     49.307749999999999
H      47.184550000000002     49.180500000000002     48.858350000000002
