22

C      47.044299999999993     47.683499999999995     50.693829999999998
C      50.411200000000001     47.051400000000001     47.582129999999999
C      46.705700000000000     47.402500000000003     49.467330000000004
C      49.111200000000004     47.663699999999999     48.207729999999998
C      46.823600000000006     47.832999999999998     48.019730000000003
C      47.964700000000001     48.214700000000001     47.342030000000001
C      45.746000000000002     48.051200000000001     47.141230000000000
C      48.144299999999994     49.021200000000000     46.172629999999998
C      45.780099999999997     48.814999999999991     46.048929999999999
C      46.972799999999999     49.435299999999991     45.486630000000005
H      48.878800000000005     46.746299999999998     48.825530000000001
H      46.724700000000006     46.901299999999999     51.416330000000002
H      47.775900000000000     48.343899999999998     51.169930000000008
H      49.469199999999994     48.696600000000011     48.663029999999999
H      50.470300000000002     47.587600000000002     46.560530000000000
H      46.099499999999999     46.557499999999997     49.355530000000002
H      51.356199999999994     46.998400000000004     48.106430000000003
H      50.434800000000003     45.970599999999997     47.405430000000003
H      44.643800000000006     47.742699999999992     47.171430000000001
H      49.102399999999996     49.445900000000002     45.722830000000002
H      44.794099999999993     49.172699999999999     45.710430000000002
H      46.826400000000000     50.029400000000003     44.583669999999998
