32

C      47.368149999999993     48.438849999999995     47.137749999999990
C      47.503050000000002     49.458449999999999     48.095149999999997
C      49.670149999999992     45.051450000000003     49.699949999999987
C      50.082049999999995     45.991750000000003     50.816249999999997
C      47.932249999999996     47.104349999999997     47.353049999999996
C      48.553950000000000     49.231650000000002     49.219149999999999
C      48.908149999999992     45.320650000000001     48.613249999999994
C      49.823549999999997     47.550750000000008     50.462649999999996
C      48.373849999999990     46.713050000000003     48.708050000000000
C      48.686549999999997     47.799450000000007     49.597449999999995
C      46.256450000000001     48.437150000000003     46.048149999999993
C      46.039050000000003     49.889350000000007     45.582549999999998
C      46.001949999999994     50.795349999999999     46.677049999999994
C      46.725349999999992     50.656750000000002     47.874350000000000
C      45.456750000000000     50.285550000000001     44.313849999999995
C      50.108149999999995     48.395949999999999     51.649449999999987
C      49.521050000000002     49.645350000000008     51.658449999999988
H      50.213849999999994     44.217550000000003     49.227050000000006
H      51.256850000000000     46.079550000000005     50.935149999999993
H      47.972049999999996     46.423349999999999     46.677549999999997
H      48.465449999999990     44.636650000000003     47.729749999999996
H      49.498549999999994     45.660650000000004     51.745149999999995
H      45.262850000000000     47.813649999999996     46.260750000000002
H      45.573849999999993     51.782449999999997     46.546449999999993
H      46.546750000000003     51.411050000000003     48.740849999999995
H      44.743150000000000     51.265749999999997     44.073149999999998
H      45.184749999999994     49.556049999999999     43.431550000000001
H      46.590449999999990     47.905950000000004     45.151349999999994
H      51.181749999999994     48.227149999999995     51.684549999999994
H      50.008150000000001     50.545249999999996     51.874049999999997
H      49.165549999999996     49.746150000000000     52.568449999999999
O      48.761049999999997     49.984250000000003     50.180149999999998
