17

C      48.107249999999986     49.592299999999994     48.201649999999987
C      48.424949999999995     49.026600000000002     47.068949999999994
C      48.219549999999998     47.526300000000006     47.122349999999990
C      48.574449999999999     46.447500000000005     46.312750000000001
C      49.236149999999995     49.272800000000004     46.169849999999990
C      47.111949999999993     48.629700000000000     48.776750000000000
C      47.378649999999993     48.222600000000000     50.134049999999995
H      46.404249999999990     47.627100000000013     50.064649999999993
H      48.678550000000001     46.605900000000005     45.378049999999995
H      48.225250000000003     45.543300000000002     46.290450000000000
H      49.876750000000001     50.151900000000012     46.187149999999995
H      49.186549999999997     48.702399999999997     45.150050000000000
H      48.814549999999997     50.456699999999998     48.396949999999997
H      46.123249999999999     48.800200000000004     48.506549999999997
H      48.480750000000000     47.911799999999999     50.170849999999994
H      47.111749999999994     48.983900000000006     50.849950000000000
O      47.480449999999990     47.360400000000013     48.223049999999994
