16

C      49.215404999999997     48.402707999999990     49.703099999999992
C      49.481785000000002     46.645079999999993     47.443119999999993
C      48.318595000000002     48.379910999999993     48.583787000000001
C      48.434535000000004     47.322080000000014     47.491320000000016
C      47.445475000000002     49.528210000000001     48.284420000000011
C      47.399155000000000     47.165080000000003     46.501319999999993
C      46.724005000000005     49.451310000000007     47.208620000000010
C      46.539545000000004     48.251536000000002     46.374320000000026
H      49.461295000000007     45.495379999999997     47.774419999999992
H      50.030535000000000     47.669680000000028     50.013520000000000
H      49.163225000000004     49.157899999999998     50.456680000000006
H      50.310845000000000     47.058980000000005     47.893220000000014
H      47.544895000000004     50.260150000000010     49.028724999999994
H      46.694295000000004     46.430580000000006     46.081719999999990
H      46.305115000000001     50.504620000000003     47.205019999999990
H      45.689155000000000     48.188033000000004     45.543319999999994
