52

C      53.142049999999998     45.711439999999996     45.918389999999988
C      54.373049999999999     45.543039999999998     45.973189999999995
C      52.002150000000000     45.661639999999998     44.670390000000005
C      45.025950000000002     48.653140000000000     49.267490000000002
C      50.342250000000000     47.087939999999996     45.841289999999994
C      45.268149999999999     47.351840000000003     49.411089999999994
C      49.791450000000005     45.696239999999996     46.763889999999996
C      45.940350000000002     49.686739999999993     48.694589999999998
C      49.935949999999998     48.440639999999995     45.851289999999999
C      46.603349999999999     47.125840000000004     49.204090000000001
C      48.826050000000002     46.081640000000000     47.833689999999997
C      48.081150000000001     49.602539999999998     47.108389999999993
C      47.305350000000004     49.424739999999993     48.279389999999999
C      48.988450000000000     48.608640000000001     46.882989999999999
C      47.647449999999999     48.020739999999996     48.753189999999996
C      48.661349999999999     47.427439999999997     47.964089999999992
C      46.835850000000001     45.623039999999996     49.003390000000003
C      47.973750000000003     45.007839999999995     48.300989999999992
C      43.626350000000002     49.123139999999999     49.365890000000000
C      42.753250000000001     48.332140000000003     50.205890000000004
C      43.020450000000004     46.873339999999992     50.500390000000003
C      44.387550000000005     46.377839999999999     50.159289999999991
C      44.580950000000001     45.002239999999993     50.004190000000001
C      45.806850000000004     44.788440000000001     49.484490000000001
C      45.536149999999999     51.069057000000008     48.225090000000002
C      44.139450000000004     51.296027000000002     48.326889999999999
C      43.341349999999998     50.440939999999991     49.135489999999997
C      42.158950000000004     48.973440000000004     51.434783000000003
C      51.264050000000005     46.949139999999993     44.820590000000003
C      41.612050000000004     46.379039999999996     50.468489999999996
H      52.731850000000001     45.521740000000001     46.869289999999999
H      54.882050000000000     45.095639999999996     47.084789999999991
H      55.085450000000002     45.637639999999998     45.090889999999995
H      50.788049999999998     45.346939999999996     47.113989999999994
H      52.483150000000002     45.631939999999993     43.667889999999993
H      49.117750000000001     45.033340000000003     45.995889999999996
H      50.127650000000003     48.903039999999997     44.900089999999999
H      47.761550000000000     50.229239999999997     46.360689999999998
H      48.018650000000001     44.034339999999993     48.033390000000004
H      44.067050000000002     44.261639999999993     50.655424400000008
H      45.977550000000001     43.792839999999991     49.363489999999992
H      46.171750000000003     51.777620000000006     47.664390000000004
H      43.897449999999999     52.207160000000009     47.768489999999993
H      42.226550000000003     50.850339999999996     49.316389999999991
H      42.072150000000001     48.005839999999999     52.332110000000007
H      43.028449999999999     49.428840000000001     52.198510000000006
H      41.434150000000002     49.801439999999992     51.609310000000015
H      51.094650000000001     47.589639999999996     44.082889999999999
H      51.329950000000004     44.857840000000003     45.021589999999996
H      40.956350000000000     46.601939999999992     49.521889999999992
H      41.600950000000005     45.353439999999999     50.470989999999993
H      40.914549999999998     46.596740000000004     51.292133000000007
