16

C      47.822099999999999     45.900567499999994     49.294949999999993
C      47.777700000000003     46.732067499999992     46.352950000000000
C      48.172300000000007     47.180567499999988     48.757549999999995
C      47.743300000000005     47.404567499999992     47.339250000000000
C      48.651100000000007     48.382867499999996     49.598249999999993
C      47.535900000000005     48.824367500000001     47.075049999999997
C      48.518500000000003     49.713367499999997     49.194149999999993
C      48.057100000000005     49.827767500000000     47.852649999999997
H      48.066199999999995     47.254267499999990     45.347149999999999
H      47.736400000000003     45.797267499999997     50.363549999999989
H      47.324200000000005     45.029367499999999     48.900250000000000
H      46.853700000000003     46.189767499999995     46.000850000000000
H      48.942700000000002     48.231867500000000     50.652850000000001
H      46.950400000000002     49.277567499999996     46.232749999999996
H      49.146299999999997     50.516867499999996     49.527949999999997
H      47.819600000000001     50.970632500000001     47.753949999999996
