14

C      47.214199999999991     48.346984999999997     47.072349999999993
C      46.881699999999995     47.158785000000002     46.883350000000000
C      46.725899999999996     46.227874999999997     47.959649999999996
C      46.926500000000004     47.966155000000001     49.390449999999987
C      47.177499999999995     48.874664999999993     48.349349999999994
C      48.499400000000009     48.990105000000000     46.235949999999995
H      46.940899999999999     46.484774999999999     45.939449999999994
H      46.545699999999997     45.188005000000004     47.661049999999996
H      47.129199999999997     48.492625000000004     50.380150000000000
H      48.315300000000008     48.000824999999999     45.619850000000000
H      48.822100000000006     50.134405000000001     48.858249999999998
N      46.758700000000005     46.623035000000002     49.189149999999998
O      49.454300000000003     49.368304999999992     46.860149999999997
S      47.792699999999996     50.811994999999996     48.767250000000004
