17

C      48.774499999999989     47.655549999999991     50.299078999999992
C      47.373199999999997     47.241450000000007     49.861958999999999
C      49.510200000000012     48.307650000000002     49.314378999999995
C      47.693399999999997     47.409050000000001     48.306849000000000
C      48.856899999999996     48.129550000000002     47.937548999999997
C      46.649900000000002     47.546650000000007     47.376658999999997
C      49.048699999999997     48.890450000000008     46.684159000000001
C      46.927500000000009     48.033850000000008     46.184478999999996
C      48.188500000000005     48.544350000000001     45.571139000000002
H      49.089799999999997     47.686550000000004     51.382139000000002
H      46.585599999999999     47.800350000000002     50.454259000000000
H      47.122100000000003     46.093049999999998     49.810329000000003
H      50.451099999999997     48.793150000000004     49.450999000000003
H      45.548900000000003     47.384450000000008     47.551018999999997
H      49.507100000000008     49.906950000000002     46.632469000000000
H      46.007300000000001     48.190550000000009     45.536169000000001
H      48.366100000000003     48.453250000000004     44.617860999999998
