22

C      49.317849999999993     48.404584999999990     46.250999999999991
C      48.369149999999998     47.221585000000005     46.007900000000006
C      49.630450000000003     48.685585000000003     47.877300000000005
C      48.155949999999997     46.419245000000004     47.330200000000005
C      48.556049999999992     48.359884999999998     48.864599999999996
C      47.897649999999992     47.115684999999999     48.679400000000015
C      47.927450000000000     49.377685000000000     49.667200000000008
C      46.699649999999998     46.751185000000000     49.367199999999997
C      46.643949999999997     49.127884999999992     50.091300000000004
C      46.190849999999990     47.718885000000000     50.244100000000003
H      48.729549999999996     49.203185000000005     45.780600000000007
H      50.402650000000001     48.547184999999999     46.000399999999999
H      48.304150000000000     46.701284999999999     45.126700000000000
H      47.537649999999992     47.927284999999998     46.224800000000002
H      50.608849999999997     48.029785000000004     48.060200000000009
H      50.084150000000001     49.754085000000003     47.846299999999999
H      49.025649999999992     45.919645000000003     47.469200000000001
H      48.294449999999991     50.452385000000000     49.623100000000008
H      46.043149999999990     46.186095000000002     48.601799999999997
H      46.013849999999998     49.885985000000005     50.653599999999997
H      45.391150000000003     47.457684999999998     50.873300000000000
H      47.348149999999997     45.547615000000000     47.332899999999995
