5

C      47.811399999999992     48.023749999999993     47.958122149999987
H      48.934100000000001     47.743750000000006     48.034722149999993
H      47.065899999999999     48.358650000000004     48.900677850000008
H      47.724000000000004     47.238650000000000     47.163322149999999
H      47.883100000000013     48.761350000000000     47.099322149999992
