5

C      47.951799999999992     47.830699999999993     48.102599999999995
H      47.986000000000004     48.774099999999997     48.844400000000000
H      47.619199999999992     48.487199999999994     47.155600000000000
H      47.027400000000000     47.302599999999991     48.010799999999996
H      48.972600000000000     47.225900000000003     47.895599999999995
