5

C      48.154200000000003     48.007599999999996     47.689094999999995
H      48.701000000000001     48.810600000000001     47.395955000000001
H      48.633300000000013     47.189399999999999     47.474834999999999
H      47.980100000000000     47.723399999999991     48.745014999999995
H      47.298999999999999     48.231299999999997     47.254985000000005
