17

C      47.159149999999990     49.422094999999992     46.640299999999989
C      46.921450000000000     49.329225000000001     49.433999999999997
C      47.473050000000001     48.217215000000003     47.230300000000000
C      47.464749999999995     48.348725000000002     48.680700000000002
C      48.017849999999996     46.996075000000005     46.477099999999993
C      48.219149999999999     47.212365000000005     49.414100000000005
C      48.905650000000009     46.156295000000000     47.389499999999998
C      49.128349999999998     46.408935000000000     48.766400000000004
H      47.385750000000002     46.515535000000000     49.698399999999992
H      47.857150000000004     49.773035000000007     45.712299999999999
H      46.697350000000000     50.399214999999998     47.034199999999998
H      46.056150000000002     50.036105000000006     48.988000000000000
H      46.945750000000004     49.321785000000006     50.584400000000002
H      47.715850000000003     46.891605000000006     45.415599999999998
H      48.702249999999999     47.916745000000006     50.381100000000004
H      49.473450000000000     45.600785000000002     46.597799999999992
H      49.943849999999998     46.153135000000006     49.375399999999999
