11

C      47.342099999999995     48.419049999999991     46.997749999999989
C      48.657100000000000     48.410950000000000     48.943150000000003
C      47.630400000000009     47.678449999999998     48.206450000000004
H      47.887799999999999     46.623649999999998     47.841549999999998
H      48.186500000000009     48.694449999999996     46.494850000000000
H      46.755400000000009     49.260050000000007     47.220050000000001
H      46.347899999999996     47.993049999999997     46.390749999999997
H      49.652100000000004     47.763050000000000     49.313649999999996
H      48.757000000000005     49.376350000000002     49.609250000000003
H      49.306899999999999     48.689650000000000     48.235249999999994
H      46.615499999999997     47.389949999999999     48.581450000000004
