18

C      49.940404999999991     50.529156499999985     49.033114999999995
C      49.734304999999999     49.724556499999991     46.682704999999999
C      49.481304999999999     48.098056499999984     48.805544999999995
C      49.740904999999998     49.256656499999991     48.214145000000002
C      49.265704999999997     46.769856499999989     49.212094999999991
C      46.868344999999998     46.021756499999995     48.658164999999997
C      48.159904999999995     45.890556499999988     49.211894999999998
C      45.653475000000000     45.993056499999994     48.083744999999993
H      49.925404999999998     50.733956499999991     46.870684999999995
H      49.113904999999995     50.643156499999989     49.757934999999989
H      50.406705000000002     51.299743500000005     48.469264999999993
H      50.657505000000000     50.057956499999989     49.627504999999999
H      48.880305000000000     49.691556499999990     45.831045000000003
H      50.167304999999999     49.067056499999993     45.894475000000000
H      50.009704999999997     46.428756499999992     50.168954999999997
H      45.432584999999996     45.300856499999995     47.152445000000000
H      48.060974999999999     44.700256499999995     49.118854999999996
H      45.342495000000000     47.143956499999987     48.158734999999993
