18

C      45.902049999999996     47.962749999999993     50.115149999999986
C      47.362049999999996     49.164850000000001     46.066449999999989
C      46.429150000000000     47.775549999999996     48.760649999999998
C      48.025149999999996     48.151749999999993     46.897549999999995
C      47.868750000000006     47.610050000000001     48.189649999999986
C      49.163350000000001     47.756749999999997     46.308650000000000
C      48.733150000000002     46.827750000000002     48.871649999999988
C      50.182749999999999     46.896749999999997     46.871150000000000
C      49.898650000000004     46.478650000000002     48.193249999999992
H      46.137850000000000     48.651249999999990     50.985849999999999
H      44.825550000000000     47.431049999999999     50.334049999999991
H      47.227450000000005     48.901250000000005     45.014150000000001
H      45.490949999999998     47.773849999999996     47.928549999999987
H      49.130949999999999     47.947550000000000     45.252949999999998
H      48.697550000000007     46.436349999999997     49.956549999999993
H      51.174450000000000     46.774149999999999     46.405649999999994
H      50.803849999999997     45.861350000000002     48.337649999999996
O      46.688050000000004     50.138649999999998     46.304349999999999
