43

C      50.078400000000002     47.471529999999987     50.003649999999993
C      50.500400000000006     48.790429999999994     49.404249999999998
C      46.787600000000005     46.167129999999993     47.130950000000006
C      46.777500000000011     47.287029999999994     46.316250000000004
C      49.028900000000000     46.441729999999986     49.743950000000005
C      49.685900000000011     48.737029999999997     48.193949999999994
C      47.859200000000008     48.198929999999997     46.761649999999996
C      48.503100000000011     46.540329999999990     48.564850000000000
C      48.743500000000004     47.803229999999992     47.757150000000003
C      51.014299999999999     47.349929999999993     51.133350000000000
C      51.403399999999998     48.379529999999995     51.990249999999996
C      51.633900000000004     49.650929999999995     51.342850000000006
C      51.302100000000003     49.713029999999996     50.009449999999994
C      45.414099999999998     45.553729999999995     46.831749999999992
C      44.711199999999998     45.698829999999994     45.575449999999996
C      44.989400000000010     46.689529999999998     44.736749999999994
C      45.919400000000003     47.664429999999989     45.040450000000000
C      48.865600000000008     45.294529999999988     50.704450000000001
C      49.762800000000006     45.301529999999993     51.747549999999997
C      51.821300000000001     46.067829999999994     50.917149999999999
C      50.661700000000003     45.268329999999999     52.934450000000005
C      51.615500000000004     45.193129999999989     49.828650000000003
C      44.313400000000009     46.705629999999992     43.309050000000006
H      50.021700000000003     49.826929999999997     47.779450000000004
H      47.970500000000008     49.146129999999992     46.163949999999993
H      52.449300000000001     50.345329999999997     51.808649999999993
H      45.158999999999999     44.822829999999989     47.671649999999993
H      44.277000000000008     44.671029999999995     45.351549999999996
H      48.339800000000004     44.190529999999988     50.199450000000006
H      51.441300000000005     46.122929999999990     53.243649999999995
H      52.596600000000002     45.722729999999991     51.608150000000002
H      51.728800000000000     51.852570000000007     49.282050000000005
H      52.657800000000002     48.926029999999990     53.337749999999993
H      50.708199999999998     44.391929999999995     53.377050000000004
H      50.920600000000000     45.405729999999998     49.044549999999994
H      51.947000000000010     44.147429999999993     50.037249999999993
H      44.067300000000010     45.646629999999995     43.035549999999994
H      43.342199999999998     47.020929999999986     43.764850000000003
H      44.418500000000002     47.571729999999995     42.622949999999996
N      47.674500000000002     45.629729999999988     47.985850000000006
O      51.674800000000012     50.832329199999997     49.314150000000005
O      46.344600000000007     48.612029999999997     44.364950000000000
O      52.226100000000010     48.150629999999985     53.152949999999997
