23

C      49.679649999999995     49.225799999999992     48.363499999999988
C      49.139249999999997     47.983199999999997     48.722299999999990
C      47.815450000000006     47.510399999999990     48.303999999999988
C      47.553249999999998     47.805399999999992     46.923299999999998
C      48.227049999999998     49.042099999999991     46.554899999999989
C      49.358049999999999     49.747000000000000     47.101699999999994
C      47.543450000000000     49.917599999999993     45.542099999999991
C      46.746749999999999     46.665399999999991     48.744299999999996
C      46.311749999999996     47.355400000000003     50.142499999999984
C      46.600250000000003     48.855300000000000     50.496699999999990
H      50.648850000000003     49.532999999999987     49.010799999999989
H      49.551850000000002     47.504099999999994     49.554299999999984
H      46.962849999999996     47.451799999999992     46.016399999999990
H      50.203050000000005     50.388899999999992     46.491399999999999
H      46.663550000000001     50.504700000000000     45.728399999999993
H      46.126550000000002     46.924700000000001     48.018299999999996
H      47.008249999999997     45.495300000000000     48.382599999999996
H      46.963850000000001     46.682099999999991     50.734399999999994
H      45.351149999999997     46.886799999999994     50.460599999999999
H      46.636649999999996     48.795499999999990     51.602300000000000
H      47.377650000000003     49.150399999999991     49.835299999999989
H      45.916649999999997     49.561099999999996     50.050099999999986
O      47.914250000000003     49.838999999999999     44.397700000000000
