62

C      49.064449999999979     43.996249999999996     51.773274999999998
C      47.719049999999996     49.062049999999999     48.166184999999999
C      48.431650000000005     48.236450000000005     49.189885000000004
C      48.120249999999999     52.701750000000004     51.191095000000004
C      47.475849999999994     50.493049999999997     48.167874999999995
C      48.774349999999998     48.878349999999998     50.366884999999996
C      47.661249999999995     52.432749999999999     49.917695000000009
C      48.322150000000008     51.331350000000000     51.601884999999996
C      47.843850000000003     50.928550000000001     49.509934999999999
C      48.394750000000002     50.314350000000005     50.613595000000004
C      46.995350000000002     48.317449999999994     47.079788000000008
C      47.060249999999996     46.906350000000003     47.078057999999999
C      47.969250000000002     46.181550000000001     48.023415000000000
C      48.279349999999994     46.814449999999994     49.276465000000002
C      46.314650000000000     49.278450000000007     46.291224999999997
C      45.796049999999994     48.403450000000007     45.222725000000025
C      46.260350000000003     47.125450000000001     44.948025000000030
C      46.815349999999995     46.196650000000005     46.028125000000003
C      46.874449999999996     51.578749999999999     47.345568000000000
C      48.080950000000001     44.735849999999999     47.977585000000005
C      48.390850000000000     43.943650000000005     49.314774999999997
C      48.854650000000007     44.569850000000002     50.366475000000008
C      48.928550000000001     45.994349999999997     50.353094999999996
C      47.219449999999995     44.789950000000005     45.922624999999996
C      47.644350000000003     43.837149999999994     46.985087000000007
C      49.684449999999998     46.752750000000006     51.324915000000004
C      49.770049999999998     48.114050000000006     51.154505000000000
C      46.251450000000006     52.765649999999994     48.093665000000001
C      46.765150000000006     53.407049999999998     49.245535000000004
C      46.266050000000007     44.151849999999996     44.856325000000027
C      45.068550000000002     43.648049999999998     45.645525000000006
C      51.163150000000002     46.191249999999997     51.325244999999995
C      50.989549999999994     49.032449999999997     51.307065000000009
C      44.841949999999997     49.225549999999998     44.258925000000019
C      48.350549999999998     42.404650000000004     49.375164999999996
H      48.406649999999999     43.311149999999998     52.261714999999995
H      48.904349999999994     44.680350000000004     52.535094999999998
H      48.027450000000002     53.363950000000003     51.973534999999998
H      48.585350000000005     51.004549999999995     52.681174999999996
H      46.171650000000000     46.700850000000003     43.824625000000012
H      47.580449999999999     42.695850000000007     47.024168000000003
H      45.199050000000000     53.087350000000001     47.726714999999999
H      46.507850000000005     54.413449999999997     49.442895000000007
H      47.887850000000000     51.662750000000003     46.732761100000005
H      44.033149999999992     43.127750000000006     45.281825000000026
H      45.459249999999997     42.802049999999994     46.172825000000017
H      44.827449999999999     44.322950000000006     46.407125000000008
H      51.853350000000006     48.681749999999994     51.769604999999999
H      51.574250000000006     48.853250000000003     50.437785000000005
H      52.054550000000006     46.557050000000004     50.775365000000008
H      51.091750000000005     45.320850000000007     50.747084999999998
H      50.699550000000002     50.116349999999997     51.440795000000008
H      43.945449999999994     49.220349999999996     44.670225000000016
H      44.579149999999998     48.613650000000007     43.318825000000004
H      45.135549999999995     49.929249999999996     43.649825000000007
H      49.150549999999996     41.726050000000001     49.072045000000003
H      45.491849999999999     50.761650000000003     45.399024999999995
H      51.551450000000003     46.091149999999999     52.509635000000003
H      50.058949999999996     43.723550000000003     51.862454999999997
N      46.178950000000000     50.573350000000005     46.250924999999981
O      46.712149999999994     43.704049999999995     43.842525000000009
O      47.384650000000008     41.586550000000003     49.489365000000006
