22

C      48.245749999999994     50.585099999999990     47.498249999999985
C      48.409250000000000     49.647599999999997     46.288350000000001
C      47.784250000000000     49.808700000000002     48.742349999999995
C      47.490849999999995     48.384000000000000     46.241849999999992
C      47.794550000000001     48.414699999999996     48.667149999999999
C      48.017349999999993     47.686999999999998     47.485349999999990
C      47.279750000000007     47.629800000000003     49.828249999999990
C      48.541749999999993     46.336100000000002     47.600249999999996
C      47.485050000000001     46.269800000000004     49.918950000000002
C      48.372249999999994     45.732100000000003     48.842849999999991
H      49.221649999999997     50.938800000000001     47.652749999999990
H      47.394050000000007     51.445099999999996     47.300350000000002
H      49.502049999999997     49.187299999999993     46.215749999999993
H      48.076350000000005     50.155400000000000     45.445749999999997
H      47.936250000000001     50.304500000000004     49.871249999999996
H      46.775250000000000     50.046400000000006     48.666949999999993
H      46.497950000000003     48.739999999999995     46.620749999999994
H      47.274249999999995     47.804100000000005     45.451349999999998
H      46.598150000000004     48.391700000000000     50.374649999999995
H      48.936350000000004     45.888999999999996     46.683149999999991
H      47.008250000000004     45.576400000000007     50.554250000000003
H      48.324250000000006     44.554900000000004     49.239049999999999
