6

C      47.635149999999996     48.817349999999990     48.259799999999998
C      48.337549999999993     47.908250000000010     48.633499999999998
H      46.570350000000005     48.611249999999998     48.263999999999996
H      48.013949999999994     46.812049999999999     48.539000000000001
H      48.068349999999995     49.187950000000001     47.366500000000002
H      49.429649999999995     48.067850000000007     48.440399999999997
