20

C      46.300699999999992     49.712549999999993     49.412749999999988
C      49.685299999999998     49.676050000000004     49.412549999999996
C      46.262599999999999     48.993650000000002     48.239649999999997
C      48.684100000000008     49.821150000000003     48.528050000000007
C      47.226199999999999     48.277550000000005     47.432950000000005
C      48.619999999999997     48.640050000000002     47.580950000000001
C      47.022200000000005     46.992649999999998     46.714349999999996
C      49.841999999999999     48.028250000000000     47.259550000000004
C      48.160599999999995     46.203350000000000     46.601349999999996
C      49.468800000000009     46.675349999999995     47.074650000000005
H      45.338400000000000     49.982349999999997     49.793450000000007
H      50.129800000000003     50.340350000000015     50.146950000000004
H      50.353200000000001     48.338250000000002     49.454350000000005
H      45.075499999999998     48.873050000000006     48.201049999999995
H      47.177500000000002     49.807450000000003     50.066450000000003
H      47.969199999999994     50.679850000000002     48.314650000000000
H      46.488399999999992     46.616650000000007     45.853049999999996
H      50.924500000000002     48.336250000000007     47.393450000000001
H      48.032499999999999     45.320149999999998     45.987350000000006
H      50.297499999999992     46.077150000000003     46.965649999999997
