5

C      48.157699999999991     47.875149999999991     48.068249999999992
H      48.780799999999992     48.737249999999996     47.584549999999993
H      48.841400000000000     47.540349999999997     48.911550000000005
H      48.333599999999997     47.262750000000004     47.088449999999995
H      47.158600000000000     48.088150000000006     48.251750000000001
