22

C      48.950199999999995     47.526299999999992     45.625900000000001
C      46.538400000000003     45.780999999999999     50.755099999999999
C      47.300999999999995     45.814000000000000     49.867999999999995
C      46.805100000000003     46.647600000000004     48.686999999999998
C      47.829400000000000     48.762899999999995     49.757900000000006
C      47.939699999999995     47.344299999999997     47.941000000000003
C      48.438200000000002     48.479700000000001     48.759299999999996
C      48.486199999999990     46.881999999999998     46.751599999999996
C      49.351300000000002     49.570100000000004     48.208799999999997
C      49.460099999999990     48.850400000000000     45.698999999999998
C      49.761599999999994     49.589999999999996     46.940500000000000
H      49.081200000000003     47.008800000000001     44.575900000000004
H      46.963699999999996     46.442100000000003     51.424099999999996
H      48.465600000000002     45.856999999999999     50.055399999999992
H      45.926899999999996     47.215299999999999     49.088299999999990
H      45.445399999999999     45.658099999999997     50.849400000000003
H      47.427500000000002     48.876200000000004     50.766100000000009
H      47.969000000000001     45.878599999999999     46.356999999999999
H      49.732399999999991     50.212399999999995     48.959899999999990
H      50.100099999999991     49.336099999999995     44.894300000000001
H      50.554600000000001     50.341900000000003     46.659099999999995
H      46.265999999999998     46.023099999999999     47.915099999999995
