17

C      46.283799999999992     48.655999999999992     47.422049999999999
C      46.379999999999995     46.215899999999998     48.410550000000015
C      47.474599999999995     48.514100000000006     47.557350000000000
C      47.665900000000008     47.106100000000005     48.043150000000011
C      48.359099999999998     49.437199999999997     47.553650000000005
C      48.872399999999999     46.654299999999999     48.502750000000006
C      49.658100000000005     48.974499999999999     48.003850000000000
C      49.959000000000003     47.620799999999996     48.425650000000005
H      46.815200000000004     45.366700000000002     49.065150000000003
H      45.569299999999998     49.618900000000004     47.632750000000001
H      45.567500000000003     48.033300000000004     46.761949999999999
H      45.323999999999998     45.827999999999996     47.781450000000007
H      45.694800000000001     46.750700000000002     49.232749999999996
H      48.398399999999995     50.633299999999998     47.087850000000003
H      48.883499999999998     45.841199999999994     49.194749999999999
H      50.676000000000002     47.469699999999996     49.238050000000001
H      50.422799999999995     49.599899999999998     48.022450000000006
