5

C      48.215899999999991     48.086849999999991     48.260249999999999
H      48.760399999999997     47.103650000000002     48.641449999999999
H      48.302000000000000     47.913350000000001     47.111950000000000
H      47.061799999999998     48.191650000000003     48.888050000000000
H      48.938200000000002     48.896349999999998     48.721650000000004
