17

C      47.677049999999994     49.386524999999992     49.654849999999996
C      46.058650000000000     47.050245000000004     48.636749999999999
C      48.149549999999991     48.493234999999999     48.447949999999999
C      47.324649999999991     47.432214999999999     48.084849999999996
C      49.331750000000000     49.060545000000005     47.869250000000001
C      48.088349999999991     46.537144999999995     47.097950000000004
C      49.774649999999994     48.242305000000002     46.845150000000004
C      49.352649999999997     46.907435000000007     46.497250000000001
H      47.480149999999995     48.590874999999997     50.356749999999998
H      48.549249999999986     49.871915000000001     49.646549999999998
H      46.770550000000000     49.966945000000010     49.183950000000003
H      45.614750000000001     46.451454999999996     47.775449999999999
H      45.587750000000000     47.946624999999997     49.119149999999998
H      49.675149999999988     50.027604999999994     48.143049999999995
H      47.150049999999993     45.972395000000006     46.899550000000005
H      50.412250000000000     48.789924999999997     46.348450000000000
H      50.019949999999994     46.405045000000001     45.643250000000002
