9

C      48.458999999999989     47.509499999999996     46.900300000000001
C      47.607199999999992     47.909399999999991     47.754400000000004
C      48.534099999999995     48.512400000000000     48.907899999999998
H      49.609500000000004     47.624799999999993     46.901499999999999
H      48.192499999999995     46.596299999999999     46.210000000000008
H      46.390499999999996     47.815299999999993     47.742199999999997
H      49.204799999999999     47.706099999999992     49.304100000000005
H      48.978900000000003     49.403700000000001     48.894999999999996
H      47.835499999999996     48.558499999999995     49.789999999999992
