17

C      48.566399999999987     47.735399999999998     49.700849999999988
C      49.794000000000011     46.689499999999995     47.475549999999998
C      47.942700000000002     48.177099999999996     48.463650000000001
C      48.625000000000000     47.734200000000001     47.450649999999996
C      46.385800000000003     48.621499999999997     48.342050000000000
C      48.340999999999994     48.566900000000004     46.241150000000005
C      46.368899999999996     49.536600000000007     47.318649999999991
C      47.373599999999996     49.469399999999993     46.234449999999995
H      49.284300000000002     48.333500000000001     49.964849999999998
H      47.908199999999994     47.840400000000002     50.703050000000005
H      50.715900000000005     47.302999999999997     47.418149999999997
H      49.801500000000004     46.059100000000001     46.634950000000003
H      45.853200000000001     48.378399999999999     49.147750000000002
H      48.964600000000004     48.399599999999992     45.408150000000006
H      45.284099999999995     49.902699999999996     47.268550000000005
H      47.105400000000003     50.110399999999998     45.296949999999995
S      49.570400000000006     45.889600000000002     49.067350000000005
