5

C      47.781599999999990     48.107900000000001     47.952699999999993
H      48.748080000000002     47.973600000000012     47.246499999999997
H      47.251919999999998     47.634400000000007     47.089599999999997
H      48.096009999999993     47.203099999999999     48.910400000000003
H      47.435169999999999     48.796900000000001     48.610999999999997
