55

C      53.113164999999995     47.125779999999992     48.913699999999999
C      50.998264999999989     45.484739999999995     47.563800000000001
C      53.206364999999991     46.697859999999999     47.438299999999998
C      52.202365000000000     46.017910000000001     46.773700000000005
C      54.019665000000003     47.585069999999995     46.705900000000000
C      52.366765000000001     46.057780000000001     45.307900000000004
C      54.380264999999994     47.322550000000000     45.295900000000003
C      53.412064999999998     46.703789999999998     44.598399999999998
C      45.081765000000004     49.312369999999994     47.297499999999999
C      44.940964999999991     50.416370000000008     48.242200000000011
C      49.529964999999990     48.430770000000003     49.096400000000003
C      46.227764999999991     48.334069999999997     47.255499999999998
C      45.891165000000001     50.756270000000001     49.091700000000003
C      48.506964999999994     48.145370000000000     48.131600000000006
C      47.867964999999998     49.724969999999999     50.255900000000011
C      47.222664999999992     48.622369999999997     48.078299999999999
C      46.916465000000002     49.791770000000000     49.134100000000004
C      44.019864999999996     48.625970000000002     46.524799999999999
C      42.687465000000003     49.303369999999994     46.814700000000002
C      42.660865000000001     50.383469999999996     47.800000000000011
C      44.131064999999992     47.715570000000007     45.424400000000006
C      42.835565000000003     47.539269999999995     44.766600000000011
C      41.526484999999994     48.016370000000002     45.186800000000005
C      41.463284999999999     49.088569999999997     46.229200000000006
C      45.367764999999991     46.743839999999999     45.354700000000008
C      46.303964999999991     47.276270000000004     46.251700000000000
C      47.601865000000004     46.579720000000002     46.350300000000004
C      48.636564999999990     46.953420000000001     47.136499999999998
C      49.419664999999995     49.475670000000001     49.999600000000001
C      49.847164999999990     46.044029999999999     46.818200000000004
C      47.426964999999996     50.116269999999993     51.495400000000004
H      52.917665000000000     46.370229999999999     49.748000000000005
H      54.158864999999992     47.629669999999997     49.031500000000008
H      52.116464999999991     47.836769999999994     49.023900000000012
H      50.882364999999993     44.414330000000000     47.543900000000008
H      51.099964999999997     45.705509999999997     48.749400000000009
H      54.435665000000000     48.594270000000002     47.047200000000004
H      51.653165000000001     45.782809999999998     44.373500000000007
H      55.416364999999999     47.891770000000001     44.837600000000009
H      53.619864999999990     46.738740000000000     43.553500000000000
H      50.482064999999992     48.244769999999995     48.513800000000003
H      45.952664999999996     51.585670000000000     49.779600000000002
H      41.709774999999993     50.844769999999997     47.579400000000007
H      43.118565000000004     46.799929999999996     43.969700000000003
H      40.583635000000001     47.724370000000000     44.657100000000000
H      40.877494999999996     49.914369999999998     46.416400000000010
H      47.809164999999993     45.596449999999997     45.732900000000001
H      46.730665000000002     45.673439999999999     44.621300000000005
H      50.281664999999990     50.070770000000003     49.992500000000007
H      49.288364999999999     45.298589999999997     46.308599999999998
H      50.498864999999995     46.337299999999999     45.928800000000010
H      47.809264999999996     49.897869999999990     52.446500000000000
H      46.384365000000003     50.588869999999993     51.762300000000010
N      43.703864999999993     50.876370000000001     48.494799999999998
O      45.901965000000004     46.009619999999998     44.342500000000001
