5

C      47.981849999999987     48.035499999999992     48.043349999999990
H      48.595749999999995     47.375599999999999     47.482250000000001
H      47.404250000000005     48.503900000000002     47.187750000000001
H      47.412250000000000     47.115099999999998     48.476049999999994
H      48.128850000000000     48.884900000000002     48.812249999999999
