5

C      47.834849999999996     47.709549999999993     48.271399999999993
H      48.882649999999998     47.443149999999996     48.489500000000007
H      47.401750000000007     47.889249999999997     47.203000000000003
H      47.993049999999997     48.866750000000003     48.683700000000002
H      47.117350000000002     47.133249999999997     48.796999999999997
