22

C      49.340449999999997     46.804949999999998     45.969199999999994
C      48.273550000000000     45.892449999999997     45.710599999999999
C      47.351750000000010     50.199050000000000     48.375100000000003
C      49.057050000000004     47.914950000000005     47.048500000000004
C      47.315250000000006     48.620350000000002     48.624099999999999
C      48.237750000000005     47.533150000000006     48.294100000000000
C      46.463450000000009     48.116349999999997     49.661500000000004
C      48.647149999999996     46.608350000000002     49.314000000000000
C      46.520449999999997     47.062250000000006     50.553200000000004
C      47.767150000000001     46.427250000000001     50.462000000000003
H      48.405950000000004     50.586349999999996     48.080200000000005
H      50.203850000000003     47.253050000000002     45.350300000000004
H      47.567450000000008     45.662450000000007     46.661799999999999
H      47.864550000000008     45.940449999999998     44.600600000000000
H      46.667850000000001     49.994250000000008     47.460700000000003
H      46.651550000000000     50.689549999999997     49.213499999999996
H      48.327250000000006     48.624549999999999     46.423000000000002
H      50.202449999999999     48.188649999999996     47.432900000000004
H      45.796149999999997     48.772250000000000     50.283700000000003
H      49.606150000000000     46.171250000000001     49.260300000000001
H      45.928550000000001     46.997050000000002     51.399400000000000
H      48.080350000000010     45.310450000000003     50.829099999999997
