5

C      47.922149999999988     48.101899999999986     47.998199999999990
H      47.256349999999998     47.937199999999997     48.781999999999996
H      48.692849999999993     47.367899999999999     47.611300000000000
H      48.823450000000008     48.632100000000001     48.647300000000001
H      47.176549999999992     48.583999999999996     47.218000000000004
