14

C      48.181550000000001     48.700949999999999     48.908304999999991
C      47.943250000000006     47.349249999999998     48.566785000000003
C      47.793350000000004     46.917749999999998     47.177084999999998
C      47.299549999999996     47.814549999999997     46.197025000000004
C      48.116849999999999     48.953950000000006     46.442585000000001
C      48.682549999999992     49.326549999999997     47.704295000000002
C      47.633350000000007     46.633150000000001     49.897914999999998
H      48.107349999999997     49.038749999999993     49.948965000000001
H      47.962249999999997     45.869249999999994     47.038764999999998
H      46.774950000000004     47.635350000000003     45.212175000000002
H      48.415349999999989     49.610150000000004     45.770665000000001
H      49.225049999999996     50.331649999999996     47.381815000000003
H      47.777349999999998     45.668350000000004     49.553175000000010
O      46.903350000000003     46.979650000000007     50.787824999999998
