16

C      46.082650000000001     46.978409999999990     48.660949999999985
C      46.798349999999999     49.158668000000006     46.676349999999992
C      47.436050000000009     47.276809999999998     48.432849999999995
C      47.674549999999996     48.390298000000016     47.386149999999994
C      48.424450000000007     46.733109999999996     49.238449999999993
C      49.046050000000008     48.547391000000005     47.158149999999999
C      49.633049999999997     47.081209999999999     48.978449999999988
C      50.040949999999995     47.934910000000002     47.910549999999994
H      45.024150000000006     47.243709999999993     47.975949999999990
H      46.091049999999996     46.301410000000004     49.559349999999995
H      45.745350000000002     49.031572000000011     46.314349999999997
H      46.929649999999995     49.830990000000000     45.830249999999999
H      48.145750000000007     46.169010000000000     50.169750000000001
H      49.527450000000002     49.247470000000007     46.433549999999990
H      50.517550000000000     46.973510000000005     49.658349999999992
H      50.975849999999994     48.253443300000001     47.649449999999995
