39

C      46.104999999999990     47.002009999999991     44.453199999999995
C      44.884999999999998     46.874510000000001     44.120200000000004
C      47.338799999999999     51.528009999999995     44.116999999999997
C      47.246000000000002     48.128810000000001     44.282900000000005
C      47.282900000000005     50.441810000000004     45.266799999999996
C      47.056000000000004     49.120810000000006     45.407699999999998
C      47.819399999999995     50.985610000000008     46.326699999999995
C      47.498600000000003     48.465710000000001     46.650299999999994
C      47.656500000000001     50.833610000000000     47.761900000000004
C      47.953200000000002     49.363309999999998     47.575300000000006
C      49.104899999999994     49.114609999999999     48.433900000000001
C      50.664300000000004     48.247810000000001     50.077499999999993
C      49.449300000000001     48.011910000000000     49.180299999999995
C      50.939500000000002     47.292609999999996     51.080099999999995
C      48.868299999999998     46.727109999999996     49.890399999999993
C      49.693700000000000     46.465510000000002     51.020199999999996
C      47.745399999999997     45.868870000000001     49.775299999999994
C      49.312400000000004     45.413860000000000     51.983799999999995
C      47.781200000000005     44.594540000000002     50.305399999999999
C      48.595999999999997     44.362880000000004     51.522100000000002
H      48.077800000000003     51.180309999999999     43.387200000000000
H      46.663800000000002     46.437609999999999     45.309499999999993
H      46.373899999999999     51.207009999999997     43.610999999999997
H      44.464800000000004     47.332309999999993     43.109500000000004
H      44.233499999999999     46.089889999999997     44.693300000000001
H      47.663400000000003     52.541409999999999     44.308799999999998
H      46.664300000000004     48.145209999999992     43.219799999999999
H      48.177000000000000     47.685810000000004     44.734500000000004
H      48.305600000000005     52.075409999999998     46.135699999999993
H      47.303199999999997     47.419709999999995     46.291900000000005
H      48.662500000000001     51.606610000000003     48.753999999999998
H      46.488499999999995     50.915610000000001     47.951199999999993
H      49.800599999999996     49.900710000000004     48.866400000000006
H      51.096300000000006     49.338810000000002     49.875899999999994
H      51.766500000000001     47.252809999999997     51.826100000000004
H      47.232700000000001     46.008610000000004     48.824599999999997
H      49.625700000000002     45.571260000000002     52.890499999999996
H      46.980499999999999     43.873719999999999     50.213900000000002
H      48.419599999999996     43.458590000000001     52.114699999999992
