6

C      48.212999999999987     47.171449999999993     48.406199999999998
C      48.560000000000002     48.519149999999996     47.960400000000007
H      47.348799999999997     47.343349999999994     49.095899999999993
H      47.972899999999996     46.617349999999995     47.563800000000001
H      48.504300000000001     48.660449999999997     46.904100000000007
H      48.651200000000003     49.382650000000005     48.610200000000013
