6

C      48.062999999999995     47.480599999999988     47.368884999999992
C      48.039500000000004     48.318899999999999     48.418604999999992
H      48.957999999999998     47.173499999999997     46.752274999999997
H      47.042000000000002     47.173000000000002     46.796605000000000
H      48.911000000000001     48.542599999999993     49.247725000000003
H      47.093400000000003     48.826999999999998     48.928744999999999
