48

C      48.055849999999992     48.350499999999997     47.515249999999995
C      47.182049999999997     47.213600000000000     47.971449999999997
C      50.890149999999998     43.925200000000004     47.789549999999998
C      49.542849999999994     48.135900000000007     47.331849999999996
C      47.673049999999996     45.931100000000001     48.291050000000006
C      51.239550000000001     46.246499999999997     47.152049999999996
C      49.492550000000001     44.258499999999998     47.521350000000005
C      49.932949999999998     46.642300000000006     47.451150000000005
C      49.022550000000003     45.589700000000008     47.644050000000000
C      47.520649999999996     49.519399999999990     47.110250000000001
C      46.021349999999998     49.834900000000005     47.275650000000006
C      45.268849999999993     48.811999999999998     47.921849999999999
C      45.827750000000002     47.523200000000003     48.408549999999998
C      48.424249999999994     50.515400000000000     46.610849999999999
C      47.957749999999997     51.780100000000004     46.418749999999996
C      45.587750000000000     51.122099999999989     46.781150000000004
C      49.791050000000006     50.366200000000006     46.706150000000001
C      50.447150000000001     49.085999999999999     47.030350000000006
C      51.904850000000003     48.782199999999989     47.041550000000001
C      52.386549999999993     47.338899999999995     47.479649999999999
C      46.954850000000000     44.980199999999996     49.010550000000002
C      45.597149999999999     45.411799999999999     49.261450000000004
C      44.913249999999998     46.515699999999995     48.688949999999998
C      44.116349999999997     49.482199999999992     48.447949999999999
C      43.751449999999998     50.872600000000006     48.402049999999996
C      44.305349999999997     51.475399999999993     47.232350000000004
C      48.930550000000004     52.960700000000003     46.337750000000000
C      47.117950000000000     43.590299999999999     49.699850000000005
C      51.804049999999997     44.965199999999996     47.480950000000000
H      48.713050000000003     43.589399999999998     47.521250000000002
H      50.491750000000003     51.140299999999996     46.353550000000006
H      52.044850000000004     49.649500000000003     47.666949999999993
H      52.047450000000005     49.075500000000005     45.936349999999997
H      53.298049999999996     47.100899999999996     46.795150000000000
H      52.540550000000003     47.239199999999997     48.589049999999993
H      44.742249999999999     44.878000000000000     49.751950000000001
H      43.806449999999998     46.586399999999998     48.396149999999999
H      42.701950000000004     50.773300000000006     48.829349999999998
H      43.610049999999994     52.418700000000001     46.908149999999999
H      43.055050000000001     49.034900000000007     47.824649999999998
H      49.509549999999997     52.997500000000002     45.363750000000003
H      47.662250000000000     43.670699999999997     50.636249999999997
H      47.141050000000000     42.451499999999996     49.244850000000007
H      52.803350000000002     44.792699999999996     47.547750000000001
H      50.755350000000000     42.880499999999998     47.930650000000000
H      45.990349999999999     43.338400000000007     50.045750000000005
N      46.636249999999997     51.902699999999996     46.308650000000000
O      49.355349999999994     53.548500000000004     47.250750000000004
