21

C      48.565699999999985     45.955799999999989     49.583099999999995
C      49.858400000000003     46.730899999999991     49.510500000000000
C      47.361599999999996     46.413899999999998     48.940100000000001
C      49.501300000000001     48.337800000000001     49.252300000000005
C      47.390000000000001     47.651299999999992     48.175200000000004
C      48.517699999999991     48.439799999999991     48.240600000000001
C      46.143599999999992     48.362499999999997     47.461500000000001
C      48.173999999999992     49.742199999999997     47.732399999999998
C      47.090199999999996     49.531599999999997     46.856099999999998
C      46.644199999999998     50.099499999999992     45.654499999999999
H      50.539699999999996     45.956800000000001     49.011200000000002
H      50.147099999999995     46.398299999999992     50.774799999999999
H      50.362399999999994     48.977899999999991     49.018700000000003
H      48.474899999999991     44.929000000000002     50.241100000000003
H      46.372100000000003     45.912399999999991     49.310299999999998
H      45.460300000000004     48.738699999999994     48.176800000000000
H      49.113599999999991     48.901399999999995     50.094600000000000
H      45.528800000000004     48.135499999999993     46.546500000000002
H      48.972099999999998     50.529200000000003     47.541300000000007
H      46.923099999999991     51.070999999999998     45.268400000000000
H      45.550500000000000     49.799599999999998     45.225200000000001
