18

C      48.053449999999991     49.810769999999991     49.150499999999994
C      48.563249999999996     46.622329999999998     49.832300000000011
C      48.541150000000002     48.792549999999999     48.276200000000003
C      48.747550000000004     47.343049999999998     48.571000000000005
C      48.213949999999997     48.809399999999997     46.857700000000001
C      49.230249999999998     46.479939999999999     47.683400000000006
C      48.303449999999998     47.826239999999999     45.882100000000001
C      48.934250000000006     46.629030000000000     46.354700000000001
C      47.141049999999993     46.508229999999998     50.318300000000001
H      49.537350000000004     45.303829999999998     48.234700000000004
H      48.385350000000003     50.002670000000002     50.303400000000003
H      47.499949999999998     50.696170000000002     49.003400000000006
H      49.310549999999992     46.809039999999996     50.627200000000009
H      46.707750000000004     46.235300000000002     49.292600000000000
H      48.015850000000000     49.639370000000000     46.146500000000003
H      48.306250000000006     47.857619999999997     44.807200000000002
H      49.461650000000006     45.938240000000000     45.929700000000004
H      46.462649999999996     46.288100000000000     51.192799999999998
