64

C      44.668364999999994     52.416249999999991     51.484599999999993
C      45.389664999999994     52.496749999999992     50.261700000000005
C      46.799565000000001     50.864069999999998     48.464600000000004
C      46.903164999999987     52.290249999999986     50.578300000000006
C      47.662764999999993     51.744299999999996     49.525600000000004
C      47.584564999999998     52.631649999999993     51.749800000000000
C      49.025764999999993     51.738399999999999     49.672499999999999
C      49.026364999999998     53.058749999999989     51.605900000000005
C      49.829364999999996     52.410349999999994     50.595700000000001
C      50.317864999999998     45.752519999999990     47.727400000000003
C      50.446664999999996     44.302749999999989     47.396200000000000
C      45.713764999999995     45.431369999999987     45.747200000000007
C      46.038664999999995     44.179459999999992     45.169400000000003
C      49.132964999999999     46.452629999999999     47.190899999999999
C      49.677464999999998     43.772619999999989     46.293400000000005
C      46.706365000000005     46.164409999999990     46.563200000000002
C      47.322864999999993     43.655429999999996     45.565300000000001
C      48.047764999999998     45.703719999999990     46.601399999999998
C      48.435464999999994     44.385359999999991     46.211900000000000
C      51.314965000000001     46.574320000000000     48.292800000000000
C      52.542464999999993     45.837919999999997     48.621600000000001
C      52.449365000000000     44.427309999999991     48.627500000000005
C      51.457764999999995     43.593899999999991     48.056100000000001
C      44.464465000000004     46.157929999999993     45.501300000000001
C      43.521365000000003     45.505049999999997     44.861000000000004
C      43.731065000000001     43.907679999999999     44.561000000000007
C      44.878964999999994     43.277040000000000     44.697800000000001
C      51.156064999999998     48.024439999999998     48.488000000000000
C      52.149265000000000     48.809929999999994     49.158999999999999
C      53.374865000000000     48.085799999999992     49.314700000000002
C      53.672464999999988     46.745759999999990     48.967900000000000
C      49.979264999999998     48.624509999999987     48.015400000000000
C      49.001064999999997     47.884159999999994     47.508500000000005
C      47.612264999999994     48.304449999999989     47.722100000000005
C      46.615065000000001     47.516859999999994     46.964500000000001
C      42.860455000000002     42.855838999999989     44.380400000000002
C      42.175695000000005     46.081840000000000     44.703800000000001
C      47.236064999999996     49.252549999999999     48.907600000000002
H      53.463164999999989     44.260369999999995     49.213900000000002
H      43.857264999999998     51.632379999999998     51.593800000000002
H      45.408765000000002     52.387649999999994     52.432699999999997
H      45.657764999999998     53.461349999999996     49.707900000000002
H      45.930565000000001     51.320539999999994     49.008500000000005
H      47.159064999999998     53.480049999999991     52.370999999999995
H      49.868564999999990     51.145370000000000     48.992600000000003
H      49.640564999999995     53.965349999999987     51.966700000000003
H      50.946964999999992     52.538549999999987     50.517000000000003
H      49.868364999999997     42.796479999999988     45.745699999999999
H      47.689965000000001     42.863917999999998     45.123600000000003
H      51.263165000000001     42.591789999999989     48.037200000000006
H      44.283564999999996     47.266259999999988     45.671599999999998
H      45.055264999999991     42.306412999999992     44.701999999999998
H      52.145164999999992     50.022179999999992     49.385400000000004
H      54.294564999999992     48.798369999999991     49.378700000000002
H      54.747865000000004     46.471449999999990     49.048800000000000
H      49.596564999999998     49.452959999999990     48.480300000000000
H      45.839964999999992     48.020460000000000     46.187200000000004
H      41.782354999999995     43.061268999999996     44.368300000000005
H      41.252134999999996     45.674349999999990     44.319100000000006
H      46.226964999999993     48.842529999999996     49.155600000000000
H      47.670164999999997     49.321649999999991     49.856700000000004
H      47.120364999999993     50.995739999999998     47.333000000000006
O      43.276165000000006     42.034650000000013     43.567300000000003
O      42.162925000000001     47.297609999999992     44.417200000000001
