19

C      49.800209999999993     48.677449999999993     45.958849999999984
C      48.996499999999997     50.272950000000002     48.691350000000000
C      48.903890000000004     48.210150000000006     47.040150000000011
C      48.505049999999997     49.163550000000008     48.259349999999998
C      48.511920000000003     46.803850000000004     46.849049999999991
C      47.652230000000003     48.256149999999998     49.141350000000003
C      47.442390000000003     46.177550000000004     47.550150000000002
C      47.013570000000001     47.165550000000003     48.559749999999994
C      46.743510000000001     48.662849999999999     50.230649999999997
H      50.204679999999996     49.479450000000007     46.521250000000009
H      49.605890000000002     48.550850000000004     44.878749999999997
H      48.839479999999995     50.605950000000000     49.741349999999997
H      49.533400000000000     50.740850000000002     47.715949999999992
H      48.782370000000000     46.229149999999997     45.973349999999996
H      46.517349999999993     47.814349999999997     50.614050000000006
H      46.862510000000000     45.259149999999998     47.143349999999998
H      45.795320000000004     49.194949999999999     50.237750000000005
H      47.551909999999992     49.409849999999999     51.121250000000003
H      46.105130000000003     46.843650000000004     49.084550000000007
