45

C      48.060599999999994     47.928414999999994     47.078244099999992
C      46.813699999999990     47.792005000000003     47.709684100000004
C      48.148199999999996     51.543374999999997     50.109904099999994
C      49.014999999999993     49.047804999999997     47.546634100000006
C      46.177900000000001     48.799385000000001     48.228254100000001
C      49.093899999999998     51.023075000000006     49.094604099999998
C      46.839700000000001     51.048375000000007     49.723234099999999
C      48.340100000000000     50.033505000000005     48.371194100000011
C      46.898099999999992     49.941355000000001     48.812174099999993
C      48.784999999999989     46.926704999999998     46.358474099999995
C      48.137999999999998     45.683775000000004     46.125174099999995
C      46.582199999999993     45.702665000000003     46.494024100000004
C      46.039799999999993     46.630335000000002     47.515274099999999
C      50.205399999999990     46.908574999999999     45.780864100000002
C      50.610999999999997     45.795745000000004     44.989594100000005
C      49.911699999999989     44.723215000000003     44.623408100000006
C      48.574399999999990     44.552175000000005     45.354334100000003
C      50.970099999999995     47.858595000000001     46.409124100000000
C      50.396299999999989     48.946254999999994     47.376404100000002
C      51.132999999999988     49.940215000000002     48.199484100000006
C      50.522100000000002     50.903774999999996     48.923744099999993
C      44.806399999999989     47.022235000000002     48.102964100000008
C      44.877000000000002     48.268664999999999     48.744914100000003
C      45.694699999999990     45.126784999999998     45.541224099999994
C      49.857700000000001     51.863074999999995     51.911174099999997
C      51.134700000000002     51.696775000000002     52.120614099999997
C      48.537299999999995     52.051475000000011     51.461134099999995
C      45.490400000000001     51.542475000000003     50.056904100000011
H      48.397699999999993     43.415385000000001     45.519674100000003
H      52.114899999999999     47.649825000000000     46.149704099999994
H      52.085699999999996     49.680655000000002     47.782864099999998
H      51.194799999999994     51.667375000000007     49.242294099999995
H      49.468199999999989     43.108525000000000     43.814768099999995
H      43.885100000000001     46.515145000000004     48.144684100000006
H      44.121099999999991     49.103014999999999     49.027314099999998
H      46.546900000000001     44.804845000000000     44.807654099999993
H      44.660399999999989     44.773814999999999     45.882514099999995
H      51.714700000000001     45.677935000000005     44.800154100000000
H      51.666899999999991     50.623745000000000     51.891084100000000
H      51.509599999999999     52.891475000000000     52.258794100000003
H      48.075499999999998     52.805175000000006     52.114074099999996
H      45.435600000000001     51.727474999999998     51.212214100000011
H      44.766299999999994     50.679085000000001     49.595884100000006
H      45.226499999999994     52.482375000000005     49.775674100000003
O      50.242500000000000     43.733195000000002     43.741205899999997
