6

C      47.335199999999993     47.912599999999998     47.963749999999990
C      48.691000000000003     47.948099999999997     47.828649999999996
H      46.755800000000008     48.318299999999994     47.198149999999998
H      46.709800000000001     47.105900000000005     48.509149999999998
H      49.137900000000002     48.894099999999995     47.404750000000000
H      49.290199999999999     47.815500000000000     48.801850000000002
