15

C      45.748649999999984     47.250999999999991     46.924450000000000
C      47.040949999999995     47.449300000000001     47.333750000000009
C      48.362050000000011     47.620600000000003     47.959050000000005
C      48.900150000000011     48.872599999999998     47.673150000000007
C      49.096049999999991     46.687800000000003     48.765950000000004
C      49.924750000000003     49.437199999999997     48.474649999999997
C      50.299950000000010     47.136099999999999     49.303350000000009
C      50.521549999999991     48.597700000000003     49.340850000000003
H      48.332149999999999     49.425800000000002     47.016649999999998
H      44.740449999999996     47.477100000000000     47.344450000000009
H      45.701849999999993     47.032000000000004     45.979349999999997
H      48.748649999999998     45.650500000000001     48.510550000000009
H      50.655149999999992     50.349499999999999     48.222250000000003
H      51.213149999999999     46.502400000000002     49.520049999999998
H      51.259550000000004     48.890999999999998     50.020650000000003
