6

C      47.493249999999989     47.724849999999989     47.493449999999996
C      48.535950000000014     48.359949999999998     47.983350000000002
H      47.514850000000010     46.655050000000003     47.276849999999996
H      46.489750000000001     47.934550000000002     47.442149999999998
H      49.510249999999999     47.834950000000006     47.811449999999994
H      48.193950000000001     49.344949999999997     48.723150000000004
