6

C      48.009149999999991     47.326499999999996     48.019300000000001
C      47.945349999999998     48.741399999999999     47.912099999999995
H      48.559550000000002     46.732399999999998     47.314499999999995
H      48.122850000000000     46.902299999999997     49.032799999999995
H      47.440449999999998     49.253699999999995     48.655199999999994
H      48.124749999999999     49.267600000000002     46.967200000000005
