17

C      47.540199999999992     46.548504999999992     49.088899999999995
C      47.818699999999993     46.526264999999995     46.779100000000007
C      47.368099999999998     45.786555000000000     47.741800000000005
C      47.934299999999993     47.922984999999997     48.528600000000004
C      48.305300000000003     47.876384999999992     47.166099999999993
C      47.845500000000001     49.073404999999987     49.332100000000004
C      48.766099999999994     49.071054999999994     46.483100000000000
C      48.200199999999995     50.218614999999993     48.627000000000002
C      48.916299999999993     50.158814999999997     47.390499999999996
H      48.357299999999995     46.135714999999998     49.836899999999993
H      46.389700000000005     46.674844999999998     49.530200000000001
H      47.131000000000000     44.714784999999999     47.708300000000001
H      47.866299999999995     45.996214999999999     45.887400000000007
H      47.284499999999994     49.224004999999998     50.258599999999994
H      49.610299999999995     49.270344999999999     45.741400000000006
H      48.093099999999993     51.285215000000001     49.225199999999994
H      49.593800000000002     51.032114999999997     47.311399999999999
