6

C      48.551320000000004     48.193099999999994     47.626899999999992
C      47.551040000000000     47.661600000000007     48.429200000000002
H      49.583429999999993     47.703500000000005     47.567500000000003
H      48.281160000000000     48.904899999999998     46.820900000000002
H      47.980800000000002     47.095100000000002     49.179099999999998
H      46.416570000000007     47.592300000000002     48.293699999999994
