9

C      48.173699999999997     47.960849999999994     48.152949999999997
C      47.156500000000001     47.301949999999998     47.959250000000004
C      48.595099999999995     48.609050000000003     47.167450000000002
H      46.987200000000001     46.374249999999996     48.632550000000002
H      49.322400000000002     49.625750000000004     47.290050000000008
H      46.677599999999998     46.984549999999992     47.111249999999998
H      49.165700000000001     48.921649999999993     49.597250000000003
H      49.190300000000001     48.068049999999992     46.402749999999997
O      48.823500000000003     48.046550000000003     49.373950000000008
