28

C      45.757099999999987     49.421534999999992     50.085449999999994
C      45.660999999999994     48.105135000000004     49.583350000000003
C      46.807799999999986     47.407435000000007     49.266849999999998
C      47.996999999999986     47.803735000000003     49.918450000000000
C      47.974299999999992     48.917535000000001     50.729649999999999
C      46.992799999999988     49.906035000000003     50.538649999999997
C      48.277999999999992     46.830394999999996     44.649449999999995
C      49.690500000000000     46.477554999999995     44.506650000000000
C      49.941599999999994     45.680965000000000     45.602649999999990
C      48.934299999999993     45.496845000000008     46.704149999999991
C      47.636299999999991     46.109444999999994     46.697449999999996
C      47.253599999999992     46.391144999999995     45.431949999999993
C      49.478700000000003     46.351704999999995     51.860049999999994
H      44.934199999999990     49.835134999999994     50.585749999999997
H      44.881399999999999     47.934635000000000     49.318649999999998
H      48.930099999999996     49.270134999999996     51.242550000000001
H      47.114799999999988     50.915535000000006     50.920549999999999
H      47.917299999999997     47.416335000000004     43.756449999999994
H      50.254400000000004     46.713674999999995     43.684249999999999
H      51.118600000000001     45.617165000000000     45.880049999999990
H      49.550099999999993     45.084464999999994     47.492049999999999
H      45.476499999999994     47.126964999999998     45.119250000000001
H      48.733899999999991     46.932505000000006     52.216949999999990
H      49.050099999999986     45.395714999999996     51.754950000000001
H      50.315799999999996     46.859684999999999     52.315750000000001
O      46.008099999999992     46.292985000000002     44.737749999999998
S      49.481300000000005     46.789484999999999     49.888550000000002
S      46.351699999999994     46.151934999999995     48.112749999999998
