56

C      46.991049999999987     48.607749999999996     46.660649999999997
C      48.001849999999997     47.640749999999997     46.584850000000003
C      45.866249999999994     46.951350000000005     51.176349999999999
C      46.690149999999996     45.888949999999994     50.920650000000009
C      46.451449999999994     48.892650000000003     48.039050000000003
C      48.265949999999997     46.596249999999998     47.600549999999998
C      45.865349999999999     47.963650000000001     50.244650000000007
C      47.171349999999997     45.546149999999997     49.612650000000002
C      46.367049999999999     47.812049999999999     48.919350000000009
C      47.367349999999995     46.678749999999994     48.732650000000007
C      46.963349999999998     49.628850000000000     45.566150000000007
C      47.543050000000001     49.238349999999997     44.243549999999999
C      48.851949999999995     48.588049999999996     44.556049999999999
C      49.125049999999995     47.863950000000003     45.637349999999998
C      45.116549999999997     47.025149999999996     52.494650000000007
C      44.454649999999994     45.692350000000005     52.718050000000005
C      45.601149999999997     44.941350000000000     53.157150000000001
C      46.756149999999998     44.990849999999995     52.263950000000008
C      45.808749999999996     50.479249999999993     45.437049999999999
C      45.688749999999999     51.175249999999991     44.180650000000000
C      46.370449999999998     50.994850000000000     42.963049999999996
C      47.184249999999999     49.857249999999993     42.957350000000005
C      45.712349999999994     50.169349999999994     48.116550000000004
C      44.892449999999997     50.695750000000004     46.664150000000006
C      49.549749999999996     45.793850000000006     47.531350000000003
C      50.533949999999997     46.906149999999997     47.520250000000004
C      50.445349999999998     47.516649999999998     46.264849999999996
C      50.854149999999997     48.907749999999993     46.306550000000001
C      51.479049999999994     46.861949999999993     45.336950000000002
C      49.951050000000002     48.692149999999998     43.489450000000005
H      45.339049999999993     48.831949999999992     50.522450000000006
H      47.460850000000001     44.637850000000000     49.254649999999998
H      45.208250000000000     47.803349999999995     53.321150000000003
H      43.671849999999999     45.635249999999999     53.485749999999996
H      45.410049999999998     44.489450000000005     54.047650000000004
H      44.900849999999998     51.873949999999994     44.429649999999995
H      46.087149999999994     51.696449999999999     42.152450000000002
H      47.782749999999993     49.788950000000000     41.952349999999996
H      44.933649999999993     50.175849999999997     48.875950000000003
H      46.522149999999996     50.976249999999993     47.983249999999998
H      43.954149999999998     49.996949999999998     46.601349999999996
H      44.269749999999995     51.567549999999997     46.913449999999997
H      49.542149999999999     45.112350000000006     46.581350000000000
H      49.627350000000000     45.019949999999994     48.474750000000000
H      51.568949999999994     46.628749999999997     47.686549999999997
H      50.312549999999995     47.705249999999992     48.483950000000007
H      52.165849999999999     48.968849999999989     46.576750000000004
H      50.607949999999995     49.482249999999993     45.438850000000002
H      50.115249999999996     49.548749999999998     47.049450000000007
H      52.328150000000001     47.427949999999996     45.227350000000001
H      51.923750000000005     45.739850000000004     45.895650000000003
H      51.050249999999998     46.778750000000002     44.305850000000007
H      49.549449999999986     47.914749999999998     42.669350000000009
H      49.999549999999999     49.701750000000004     43.035049999999998
H      51.021149999999999     48.491150000000005     43.954850000000008
O      47.580549999999995     44.126050000000006     52.368949999999998
