18

C      48.431874999999991     47.240199999999994     50.217699999999994
C      47.340205000000012     49.864699999999999     49.283000000000001
C      48.406675000000000     47.444699999999997     48.698900000000009
C      47.911794000000000     48.780799999999999     48.378600000000006
C      48.713864999999991     46.349600000000002     47.803800000000010
C      48.190988999999995     49.113600000000005     46.992699999999999
C      48.686324999999989     46.748400000000004     46.460100000000011
C      48.894494999999999     48.193800000000003     46.140000000000001
H      48.022883999999998     49.696300000000008     50.299300000000002
H      47.244305000000004     47.076100000000004     50.445100000000011
H      48.744805000000007     46.200200000000002     50.512600000000006
H      47.549783999999995     50.707899999999995     48.567599999999999
H      46.491805000000006     50.080800000000011     49.989400000000003
H      48.834004999999998     45.292100000000005     47.956400000000002
H      48.285969999999999     50.173400000000001     46.823999999999998
H      48.955035000000002     45.862900000000003     45.722300000000004
H      49.508194999999994     48.193800000000003     45.207999999999998
H      48.989624999999997     48.034800000000004     50.792000000000002
