5

C      48.095999999999997     48.015099999999990     47.931649999999991
H      47.804699999999997     47.185400000000001     47.170050000000003
H      48.608000000000004     47.785600000000002     48.829949999999997
H      47.269199999999998     48.640300000000011     48.201449999999994
H      48.730800000000002     48.814599999999999     47.572749999999999
