32

C      49.507299999999987     51.129599999999982     49.344999999999992
C      47.869799999999998     49.420199999999994     48.747399999999999
C      49.009299999999996     49.788700000000006     49.624099999999999
C      47.606300000000005     48.173000000000002     49.041399999999996
C      49.617400000000004     49.035299999999992     50.670299999999997
C      48.225999999999999     47.315200000000004     49.981099999999998
C      49.241500000000002     47.720500000000001     50.907499999999999
C      48.674899999999994     47.977300000000000     45.833600000000004
C      46.179400000000001     47.646799999999999     47.996899999999997
C      47.887900000000002     46.631299999999996     46.084400000000002
C      46.872399999999999     46.720100000000002     47.073999999999998
C      48.469899999999996     45.503299999999996     45.380899999999997
C      46.705600000000004     45.275300000000001     47.235100000000003
C      48.257899999999992     44.255899999999997     45.999499999999998
C      47.564700000000002     44.235100000000003     47.250200000000000
H      48.144199999999998     48.575199999999995     45.110699999999994
H      50.639700000000005     50.993899999999996     49.856800000000000
H      49.329200000000000     51.565500000000000     48.296199999999999
H      47.202900000000000     50.129900000000006     48.341300000000004
H      50.662000000000006     49.191800000000001     50.992500000000007
H      47.722999999999999     46.271299999999997     50.073999999999998
H      49.630799999999994     46.984700000000004     51.591600000000000
H      49.545999999999992     47.856200000000001     45.243899999999996
H      48.758700000000005     48.653700000000001     46.836700000000000
H      45.337999999999994     47.230800000000002     48.311099999999996
H      45.790300000000002     48.453400000000002     47.381799999999998
H      48.896500000000003     45.836100000000002     44.408400000000000
H      46.172799999999995     45.382400000000004     48.173299999999998
H      48.623400000000004     43.131699999999995     45.611100000000000
H      47.384600000000006     43.227099999999993     47.756699999999995
H      49.566999999999993     52.868300000000005     50.615700000000004
O      49.005099999999999     52.166100000000000     50.229600000000005
