17

C      48.682999999999993     49.225349999999999     49.700799999999987
C      47.341300000000004     50.220150000000004     46.915999999999997
C      48.158200000000008     48.648550000000000     48.416499999999999
C      47.246000000000009     49.129850000000005     47.478499999999997
C      48.550600000000003     47.290649999999999     48.670099999999991
C      46.743800000000007     48.135450000000006     46.477300000000000
C      47.771500000000003     46.347450000000002     47.971299999999999
C      46.840500000000006     46.798150000000007     46.952799999999996
H      48.942999999999998     50.227249999999998     50.346299999999999
H      48.621500000000012     48.584250000000004     50.538499999999999
H      48.335300000000004     50.398250000000004     46.291600000000003
H      46.271400000000000     50.830050000000000     46.731299999999990
H      49.159500000000008     47.009750000000004     49.551099999999991
H      46.285400000000010     48.526250000000005     45.461500000000001
H      47.906500000000008     45.169950000000000     47.750500000000002
H      46.310800000000000     45.997150000000005     46.327699999999993
H      49.728600000000000     48.918250000000000     49.767099999999999
