41

C      48.073499999999996     48.772999999999996     47.457199999999993
C      47.927599999999998     49.013100000000009     46.058300000000003
C      44.628399999999999     45.384399999999999     47.349400000000003
C      47.238500000000002     48.011300000000006     48.316800000000001
C      46.919200000000004     48.324500000000000     45.440799999999996
C      45.504100000000008     46.042000000000002     48.234600000000000
C      45.038700000000006     46.279700000000005     45.856099999999998
C      46.189300000000003     47.196700000000007     47.605199999999996
C      46.095600000000005     47.493099999999998     46.273300000000006
C      49.075299999999999     49.476100000000002     48.281199999999998
C      49.839500000000001     50.403400000000005     47.711100000000002
C      49.983699999999999     50.753000000000014     46.111699999999999
C      48.943200000000004     50.167100000000005     45.456099999999999
C      49.196100000000001     49.220200000000006     49.769500000000001
C      50.308000000000007     49.889700000000005     50.531700000000001
C      51.179800000000014     50.782000000000011     49.895899999999997
C      50.720100000000016     51.045000000000002     48.540199999999999
C      48.374800000000008     48.323599999999999     50.471900000000005
C      47.333700000000007     47.773099999999999     49.737700000000004
C      46.626400000000004     46.683000000000007     50.337699999999998
C      45.890799999999999     45.725700000000003     49.629099999999994
C      45.065600000000003     46.008600000000001     44.338000000000001
C      46.858300000000000     46.179600000000008     51.818799999999996
C      46.341400000000007     49.111100000000008     44.160400000000003
H      43.725499999999997     45.901000000000010     47.162300000000002
H      50.823000000000008     51.325500000000005     45.807000000000002
H      50.318100000000015     49.928899999999999     51.691100000000006
H      52.274500000000003     51.113300000000010     50.188000000000002
H      51.479900000000001     51.651100000000000     47.993899999999996
H      48.658200000000008     48.156100000000009     51.620900000000006
H      45.526499999999999     44.961200000000005     50.155699999999996
H      44.387600000000006     45.203800000000001     44.318399999999997
H      45.787599999999998     46.398400000000009     43.551200000000001
H      46.802900000000008     45.139400000000009     51.819800000000001
H      46.162400000000005     46.636099999999999     52.494000000000000
H      46.744399999999999     49.916400000000010     43.534400000000005
H      48.928400000000011     50.185100000000006     44.300899999999999
H      45.857900000000001     48.278000000000006     43.506000000000000
H      47.816900000000004     46.358000000000004     52.015799999999999
H      44.657200000000003     44.348900000000000     47.590000000000003
H      45.359200000000001     49.805300000000017     44.397500000000001
