6

C      48.375799999999991     48.148299999999992     47.364099999999993
C      47.716800000000006     47.980000000000011     48.601099999999988
H      47.526399999999995     47.756599999999999     46.553100000000001
H      49.447500000000005     48.243400000000001     47.497600000000006
H      48.354399999999998     47.868800000000000     49.446899999999999
H      46.552499999999995     47.878900000000009     48.789400000000001
