6

C      48.192699999999995     47.242399999999989     47.818149999999996
C      47.821700000000007     48.468699999999998     48.331450000000004
H      47.261700000000005     46.941999999999993     47.122050000000002
H      49.008499999999998     46.638700000000000     48.453650000000010
H      46.991500000000002     49.361300000000000     48.000350000000012
H      48.729700000000008     48.801899999999989     48.877949999999998
