43

C      52.211979999999990     49.151859999999999     48.251684999999981
C      51.887779999999992     48.881259999999997     49.664764999999989
C      45.659509999999997     46.842159999999993     46.263224999999991
C      47.511579999999995     45.243560000000002     50.784845000000004
C      51.529479999999992     48.361959999999996     47.268474999999995
C      45.519839999999995     46.106459999999998     47.756398999999988
C      46.516379999999998     45.354860000000002     49.773494999999997
C      47.016279999999995     47.052759999999992     45.934624999999997
C      50.784979999999997     48.060559999999995     50.097085000000007
C      48.756279999999997     45.769760000000005     50.435395000000000
C      49.560979999999994     47.247559999999993     46.485624999999999
C      46.685779999999994     46.005960000000002     48.534164999999987
C      50.349480000000000     47.693259999999995     47.648506999999995
C      48.138779999999997     47.193060000000003     46.778525000000002
C      50.021580000000000     47.490259999999992     49.078284999999994
C      48.886579999999995     46.568560000000005     49.199044999999998
C      48.005279999999999     46.538460000000001     48.106514999999987
C      53.355879999999999     49.997860000000003     48.105054999999993
C      53.640180000000001     50.788059999999987     49.319854999999990
C      53.003479999999996     50.989959999999996     50.593254999999999
C      51.956179999999996     50.056159999999991     50.568864999999988
C      44.385129999999997     46.928359999999998     45.513525000000001
C      43.222369999999998     46.607759999999999     46.226025000000007
C      43.135619999999996     45.867760000000004     47.267240999999999
C      44.257979999999996     45.842259999999996     48.176724999999990
C      44.092409999999994     45.010649999999998     49.397784999999999
C      45.198369999999997     44.757689999999997     50.228724999999997
H      47.171579999999999     44.584009999999992     51.516174999999990
H      52.091380000000001     48.631060000000005     46.262225000000001
H      47.232779999999998     47.340859999999992     44.689925000000002
H      49.455979999999997     46.324659999999994     51.326554999999999
H      50.071879999999993     47.079759999999993     45.535125000000008
H      53.919280000000001     49.995559999999998     47.122335999999990
H      54.046980000000005     51.798159999999996     49.139375000000001
H      53.025179999999992     51.963859999999997     51.019154999999998
H      51.150379999999998     50.302759999999992     51.223945000000001
H      44.637529999999998     47.310159999999996     44.483825000000010
H      42.208179999999999     45.546059999999997     47.638651999999993
H      43.201769999999996     44.386740000000003     49.445474999999988
H      45.090729999999994     44.036140000000003     51.027784999999994
H      50.660479999999993     47.931359999999998     51.155895000000001
H      41.953019999999995     46.935760000000002     44.680625000000020
O      42.159359999999992     46.295259999999999     45.325724999999991
