16

C      46.763099999999994     46.651699999999984     47.977749999999986
C      48.535800000000002     48.096199999999996     45.794349999999994
C      47.251500000000000     47.935699999999997     48.085749999999990
C      48.420200000000001     48.327199999999991     47.174149999999997
C      46.639099999999999     48.869199999999992     48.995049999999992
C      49.296900000000001     48.741000000000000     48.224549999999994
C      47.546799999999998     49.587099999999992     49.822049999999990
C      48.822200000000002     49.545699999999997     49.226450000000000
H      47.279299999999999     45.985900000000001     47.355350000000001
H      46.363999999999997     45.850700000000003     48.707449999999994
H      47.663300000000000     47.574100000000001     45.459750000000000
H      49.219500000000004     48.944599999999994     45.192949999999996
H      45.572899999999997     48.552799999999991     49.153850000000006
H      50.427100000000003     48.551099999999991     47.946550000000002
H      47.432800000000000     50.149299999999997     50.807050000000004
H      49.619599999999998     49.844899999999996     49.848349999999996
