9

C      48.856563499999993     47.411359999999995     46.773899999999983
C      47.361523500000004     48.563031000000002     48.579099999999997
C      47.893003499999992     47.316659999999999     47.859600000000000
H      49.825013499999997     47.947316000000001     46.948499999999996
H      49.179153499999998     46.423360000000002     46.413699999999992
H      46.174986500000003     48.634007999999994     48.793900000000008
H      47.241763500000005     49.576639999999998     47.790399999999991
H      47.283973500000002     46.462260000000001     47.950999999999993
H      47.944273499999994     48.898200000000003     49.586300000000008
