19

C      45.530850000000001     46.578849999999989     48.451549999999997
C      46.944949999999992     46.478449999999995     48.570750000000004
C      50.012150000000005     45.830249999999999     47.626159999999999
C      47.731750000000005     47.382449999999999     47.725600000000000
C      49.125250000000008     47.067850000000000     47.352029999999999
C      47.128150000000005     48.597850000000001     47.477720000000005
C      49.757950000000008     48.398849999999989     47.303460000000001
C      47.779849999999996     49.773449999999997     47.224460000000008
C      49.208349999999996     49.768449999999994     47.283640000000005
H      45.158450000000002     47.637650000000001     48.104190000000003
H      44.958950000000002     45.840049999999998     49.025869999999998
H      50.559049999999999     46.017749999999999     48.449200000000005
H      47.295649999999995     45.532249999999998     49.157309999999995
H      49.059250000000006     45.156349999999996     47.460220000000007
H      50.756050000000002     45.426150000000000     46.842690000000005
H      46.320450000000008     48.453449999999997     48.071140000000000
H      51.041049999999998     48.160649999999997     47.228030000000004
H      47.464250000000007     50.843650000000004     47.117350000000002
H      49.617149999999995     50.770750000000000     46.895930000000007
