6

C      47.719649999999987     48.257399999999990     48.608449999999998
C      48.276850000000010     47.625699999999995     47.439450000000008
H      46.752349999999993     47.919200000000004     48.919250000000005
H      48.117350000000002     49.010800000000003     49.384050000000002
H      47.770949999999999     46.989199999999997     46.615949999999998
H      49.247650000000007     47.043800000000005     47.521050000000002
