46

C      47.297349999999987     45.779249999999990     45.902499999999989
C      47.263449999999999     46.581650000000003     44.710299999999997
C      50.189549999999997     51.689649999999993     45.281100000000002
C      48.272149999999996     46.034949999999988     47.014499999999991
C      50.475349999999999     51.460450000000002     46.694099999999999
C      48.272549999999995     47.613649999999993     44.607799999999990
C      49.311850000000000     50.520549999999993     44.823399999999999
C      49.602249999999998     48.026749999999986     47.997099999999996
C      50.333050000000000     49.295849999999994     47.972899999999989
C      48.754850000000005     47.340049999999998     46.987299999999998
C      50.109849999999994     50.097749999999998     46.732899999999994
C      48.723950000000002     48.167349999999992     45.752599999999994
C      49.156250000000000     49.570150000000005     45.823799999999999
C      46.148849999999996     44.955049999999993     46.120999999999988
C      45.059749999999994     44.909549999999996     45.295200000000001
C      45.025549999999996     45.560349999999993     44.089399999999991
C      46.325049999999997     46.264049999999997     43.626999999999988
C      50.098150000000004     47.314449999999994     49.211499999999994
C      51.101050000000001     47.593449999999997     50.121899999999989
C      51.832949999999997     48.857149999999997     49.840399999999995
C      51.441749999999999     49.661549999999984     48.745399999999997
C      49.274850000000001     45.934549999999994     49.139899999999990
C      48.556249999999991     45.187849999999997     48.071799999999989
C      49.024749999999997     45.417449999999995     50.390499999999996
C      49.011849999999995     44.888049999999993     51.504199999999990
C      48.028549999999996     44.264349999999993     52.555999999999990
C      48.601950000000002     50.882749999999994     43.503899999999994
H      48.587850000000003     43.641050000000000     53.366199999999999
H      45.283949999999997     43.433850000000000     47.167699999999989
H      51.081649999999996     51.844749999999998     47.535599999999995
H      48.517150000000001     48.015549999999998     43.685399999999994
H      44.220349999999996     45.843649999999990     43.538199999999996
H      46.578350000000000     46.140549999999998     42.633800000000001
H      51.148349999999994     47.032749999999986     51.175399999999989
H      52.629350000000002     49.328149999999994     50.462899999999998
H      52.067449999999994     50.670750000000005     48.511999999999993
H      47.841650000000001     44.396849999999993     48.129999999999988
H      43.370649999999998     44.094349999999991     44.876299999999993
H      47.080950000000001     44.843649999999997     52.910999999999994
H      47.405249999999995     43.471649999999990     51.972299999999997
H      50.517749999999999     52.566150000000000     44.721599999999988
H      47.595549999999989     51.376849999999997     43.785099999999993
H      48.348749999999995     49.739149999999995     43.285800000000002
H      49.259550000000004     51.531949999999995     42.968299999999992
O      43.939850000000000     44.210249999999995     45.668399999999998
O      46.055949999999996     44.085849999999994     47.106299999999997
