6

C      47.708149999999996     47.417949999999990     47.581049999999998
C      47.896050000000002     48.383749999999999     48.517650000000003
H      48.788049999999998     48.405050000000010     49.374150000000000
H      48.418350000000004     46.649149999999999     47.430250000000001
H      47.290149999999997     49.350850000000001     48.211050000000000
H      47.211950000000002     47.736750000000008     46.625850000000000
