22

C      49.517949999999992     46.730399999999996     46.656899999999986
C      49.999849999999995     48.121200000000002     46.656699999999994
C      48.068750000000001     46.416200000000003     47.120099999999994
C      49.975349999999992     48.581199999999995     48.087299999999999
C      47.774349999999998     47.131599999999999     48.508999999999986
C      48.433349999999997     48.313200000000002     48.493299999999991
C      46.446849999999998     47.343800000000002     49.069099999999992
C      48.148150000000001     49.259900000000002     49.481799999999993
C      45.963949999999997     48.570000000000000     49.640000000000001
C      46.784150000000004     49.612900000000003     49.942999999999998
H      50.776650000000004     48.086300000000008     48.791899999999998
H      49.641649999999998     46.227000000000004     45.552199999999999
H      50.161349999999999     46.363500000000002     47.469099999999997
H      51.017449999999997     48.381999999999991     46.239299999999993
H      47.436450000000001     46.896400000000000     46.349499999999992
H      47.769350000000003     45.467100000000002     46.850099999999998
H      49.683149999999998     48.617400000000004     45.566999999999993
H      50.051249999999996     49.597500000000004     48.267799999999994
H      45.847050000000003     46.600300000000004     49.357699999999994
H      48.810050000000004     50.017099999999999     49.783299999999997
H      44.982550000000003     48.639700000000005     50.002200000000002
H      46.495550000000001     50.532899999999998     50.447800000000001
