5

C      47.677999999999983     47.679099999999991     47.897399999999990
H      47.503499999999995     48.935000000000002     47.780500000000004
H      47.471899999999998     47.072000000000003     46.984700000000004
H      48.597799999999999     47.064999999999998     48.453599999999994
H      47.402200000000001     47.578000000000003     49.015299999999996
