21

C      49.802899999999994     49.514149999999994     48.169199999999996
C      50.050999999999995     48.595750000000002     46.909999999999997
C      48.853999999999999     49.122250000000001     49.245100000000008
C      48.669899999999998     48.487650000000002     46.315300000000008
C      47.987699999999997     48.229650000000007     48.735299999999995
C      47.620699999999999     47.936350000000004     47.213400000000007
C      47.051099999999998     47.607349999999997     49.608900000000006
C      46.541800000000002     47.243549999999999     46.726399999999998
C      46.090299999999999     46.794150000000002     49.020200000000003
C      45.663699999999999     46.528149999999997     47.588499999999996
H      50.607399999999998     49.440550000000002     48.896900000000002
H      50.328600000000002     50.374650000000003     47.891500000000008
H      50.263399999999997     47.491550000000004     47.373599999999996
H      51.049500000000002     49.196850000000005     46.395700000000005
H      48.775999999999996     49.657850000000010     50.187100000000001
H      48.266900000000000     49.499450000000003     46.059799999999996
H      48.594900000000003     48.105150000000002     45.216300000000004
H      47.187700000000000     47.551050000000004     50.783699999999996
H      46.544199999999996     46.805850000000007     45.687799999999996
H      45.946100000000001     45.977649999999997     49.697600000000008
H      44.950499999999998     45.625349999999997     47.305499999999995
