52

C      47.814149999999991     43.277624999999979     49.716374999999999
C      45.761350000000007     52.683754999999991     44.609074999999990
C      48.806550000000001     44.199824999999990     49.959774999999993
C      45.476450000000000     51.668254999999995     43.704875000000001
C      47.633350000000007     43.385324999999995     48.194474999999997
C      46.065349999999995     52.643864999999998     45.930274999999995
C      48.411150000000006     45.637624999999986     50.046475000000001
C      45.371350000000007     50.369934999999998     44.219875000000002
C      46.523849999999996     45.227824999999996     46.742474999999999
C      46.740650000000002     50.720075000000008     47.582374999999999
C      45.791750000000008     47.578733000000000     46.030275000000003
C      47.394949999999994     48.301675000000003     48.406274999999994
C      47.258650000000003     44.768224999999987     47.849774999999994
C      46.299650000000000     51.255434999999991     46.278174999999990
C      46.594049999999996     46.626524999999987     46.760975000000002
C      46.785150000000002     49.265855000000002     47.594374999999999
C      47.624949999999998     45.774024999999995     48.794574999999995
C      45.659149999999997     50.116954999999997     45.524574999999999
C      47.360349999999997     46.997583000000006     48.104374999999990
C      45.909949999999995     48.915405000000007     46.482275000000001
C      48.390150000000006     46.449524999999994     51.273474999999991
C      47.989649999999997     49.135854999999999     49.598974999999996
C      45.356849999999994     44.380324999999985     46.124274999999997
C      45.107050000000001     47.267740000000003     44.669974999999994
C      50.020049999999998     43.487624999999994     50.453975000000000
C      49.233149999999995     46.108824999999996     52.445765000000009
C      50.259349999999998     45.331624999999988     52.411015000000006
C      50.864050000000006     44.967424999999992     51.071974999999995
H      45.391249999999999     53.626975000000002     44.149275000000003
H      45.394549999999995     51.790374999999997     42.703774999999993
H      48.020449999999997     42.730424999999997     47.232774999999990
H      46.614149999999995     53.398744999999998     46.363974999999996
H      45.108249999999998     49.583404999999999     43.458974999999995
H      46.171450000000007     51.203195000000008     48.385374999999996
H      47.510249999999999     47.160173000000000     51.456039000000004
H      48.465149999999994     50.050104999999995     49.294474999999991
H      48.782049999999998     48.400364999999994     50.057874999999996
H      47.401849999999996     49.147194999999996     50.438074999999998
H      46.819749999999999     42.636424999999988     51.309474999999992
H      44.602850000000004     46.282724999999985     44.731475000000003
H      44.066749999999999     47.748463999999998     44.679274999999990
H      45.279849999999996     47.936655000000002     43.699874999999992
H      44.467250000000007     44.880624999999995     46.068074999999993
H      50.019149999999996     43.106824999999986     51.529612000000000
H      50.746150000000000     42.906024999999985     49.763475000000000
H      50.716049999999996     45.768524999999997     50.235574999999997
H      48.862350000000006     46.710224999999994     53.296225000000007
H      50.813649999999996     45.710024999999987     53.279555000000002
H      45.336150000000004     43.261824999999988     46.425274999999999
H      45.607450000000000     44.231324999999998     44.910574999999994
H      51.933250000000001     44.851124999999996     51.356410540000013
O      47.049250000000001     42.373024999999998     50.374674999999996
