6

C      48.344999999999999     47.501750000000001     47.690725000000000
C      48.153700000000001     48.694749999999999     48.286225000000002
H      48.111300000000000     47.561950000000010     46.556565000000006
H      48.255700000000004     46.624450000000010     48.302525000000003
H      47.655000000000001     49.375549999999990     47.615515000000002
H      48.016300000000001     48.895550000000000     49.443434999999994
