16

C      49.379149999999996     49.763599999999997     46.785649999999990
C      49.184450000000005     49.421100000000010     49.557650000000002
C      48.957749999999997     48.497500000000002     47.144149999999989
C      48.625549999999997     48.275199999999998     48.808450000000001
C      48.832250000000009     47.185000000000002     46.598250000000000
C      47.450449999999996     47.359400000000008     49.016150000000003
C      47.775349999999996     46.418000000000006     46.947150000000001
C      46.833250000000000     46.619399999999999     47.980749999999993
H      49.551549999999999     49.970399999999998     45.733950000000000
H      50.005050000000004     50.478099999999998     47.490249999999996
H      50.003850000000007     50.236600000000010     49.441349999999993
H      48.359450000000002     49.342399999999998     50.266050000000000
H      49.452249999999999     47.116700000000009     45.740549999999999
H      46.870049999999999     47.107600000000005     49.971849999999996
H      47.408949999999997     45.521900000000002     46.337449999999997
H      45.994949999999996     45.958600000000004     48.031849999999999
