37

C      46.080049999999993     48.681599999999989     46.364399999999996
C      47.253850000000000     49.413900000000005     46.490900000000003
C      50.305750000000003     47.692000000000000     51.371300000000005
C      45.718150000000009     47.491300000000003     47.008900000000011
C      50.019050000000007     46.403500000000001     51.254000000000005
C      48.029250000000005     48.962600000000002     47.741900000000001
C      49.643749999999997     48.406900000000000     50.075400000000002
C      46.446449999999999     46.034799999999997     49.282800000000002
C      47.848550000000003     45.312099999999994     49.781400000000005
C      46.615250000000003     47.017999999999994     47.984200000000001
C      48.986649999999997     46.241899999999994     50.209299999999999
C      47.794250000000005     47.696599999999997     48.424800000000005
C      48.828550000000007     47.382799999999996     49.502300000000005
C      45.130949999999999     49.176399999999994     45.342600000000004
C      45.586250000000007     50.256099999999996     44.493100000000005
C      46.945549999999997     50.686399999999999     44.483100000000007
C      47.742350000000002     50.371400000000001     45.637300000000003
C      49.108850000000004     49.857099999999996     48.037400000000005
C      49.958449999999999     49.406200000000005     49.104700000000008
C      51.459850000000003     48.355300000000007     51.908600000000007
C      44.513350000000003     46.606000000000002     46.663899999999998
H      45.843050000000005     46.598899999999993     49.926800000000000
H      50.157250000000005     45.227600000000002     51.829099999999997
H      45.829149999999998     45.119099999999996     48.988700000000001
H      48.319950000000006     44.714700000000001     48.978500000000004
H      44.033650000000009     48.993400000000001     45.295900000000003
H      44.791449999999998     50.850699999999996     43.804900000000004
H      47.500650000000007     51.467899999999993     43.948200000000000
H      48.603050000000010     51.073399999999999     45.981500000000004
H      49.330350000000010     50.856699999999996     47.499600000000001
H      50.837950000000006     49.971899999999998     49.287900000000008
H      52.360050000000001     47.816399999999994     51.407400000000010
H      51.556550000000001     49.369899999999994     52.195099999999996
H      43.639949999999999     46.959300000000006     47.228200000000001
H      44.346249999999998     46.755500000000005     45.540400000000005
H      44.768749999999997     45.541599999999995     46.839300000000009
H      47.495249999999999     44.532100000000007     50.388800000000003
