6

C      48.107949999999995     48.717649999999992     47.581399999999988
C      47.818849999999998     47.550950000000000     48.221800000000002
H      48.933250000000001     49.107450000000000     48.190000000000012
H      47.450650000000003     49.204050000000002     46.796199999999999
H      48.278050000000000     47.583549999999995     49.203800000000001
H      47.066749999999999     46.795949999999998     47.965699999999998
