22

C      45.732849999999992     47.994999999999997     48.720499999999994
C      46.676150000000000     47.168400000000005     49.719099999999997
C      46.190049999999999     48.905100000000004     47.768300000000011
C      47.984650000000002     47.889400000000002     49.835400000000007
C      47.690349999999995     48.647000000000006     47.485600000000005
C      48.456049999999998     47.932600000000008     48.478099999999998
C      48.388149999999996     49.082400000000007     46.273499999999999
C      49.800550000000001     47.571100000000001     48.304900000000004
C      49.736350000000002     48.644400000000005     46.217900000000000
C      50.489450000000005     47.765799999999999     46.991500000000002
H      44.580050000000000     48.045600000000007     49.082700000000003
H      45.291649999999997     47.145600000000002     48.114900000000006
H      46.783549999999991     46.069800000000001     49.155200000000008
H      46.302850000000007     46.766600000000004     50.629700000000000
H      45.678750000000001     48.938200000000002     46.786000000000001
H      46.222949999999997     49.930199999999999     48.282600000000002
H      48.575249999999997     47.207000000000008     50.635199999999998
H      47.963650000000001     48.819500000000005     50.332500000000010
H      47.953949999999999     49.715800000000002     45.507100000000008
H      50.160950000000000     46.977900000000005     49.259100000000004
H      49.963149999999999     49.049499999999995     45.364800000000002
H      51.419950000000000     47.468100000000007     46.602800000000002
