54

C      49.317049999999995     51.447249999999997     45.763299999999987
C      48.177750000000003     49.925550000000001     49.163900000000012
C      48.955350000000003     50.815850000000005     48.233699999999999
C      47.631550000000004     46.523850000000003     45.471000000000004
C      48.270250000000004     47.368350000000000     44.586900000000000
C      47.690049999999999     48.667950000000005     48.598600000000005
C      49.020049999999998     50.460450000000002     46.856800000000007
C      47.131750000000004     47.180650000000000     46.700999999999993
C      48.599450000000004     48.653950000000002     45.088600000000000
C      47.513849999999998     48.509950000000003     47.270800000000008
C      48.273150000000001     49.302849999999999     46.253000000000000
C      47.945149999999998     50.311950000000003     50.398499999999999
C      48.464649999999999     51.661949999999997     50.808700000000002
C      49.279949999999999     52.523549999999993     50.141100000000009
C      49.704550000000005     51.923150000000000     48.876599999999996
C      46.791449999999998     45.374850000000002     44.995999999999995
C      46.755749999999999     45.046250000000001     43.643699999999995
C      47.780749999999998     45.768050000000002     42.941400000000002
C      48.563050000000004     46.894550000000002     43.386899999999997
C      47.456049999999998     49.452850000000005     51.422200000000004
C      47.416750000000000     49.934350000000002     52.794700000000006
C      48.016150000000003     51.177350000000004     53.049199999999999
C      48.480049999999999     52.121549999999992     52.184200000000004
C      47.033250000000002     48.172250000000005     50.773600000000002
C      46.781250000000000     47.724350000000001     49.418000000000006
C      46.119250000000001     46.651450000000004     48.882000000000005
C      46.415950000000002     46.250450000000001     47.486700000000013
C      45.871549999999999     44.473250000000000     45.808400000000006
C      45.763950000000001     45.038450000000005     46.988100000000003
C      46.342350000000003     47.055550000000004     51.374499999999998
C      45.360150000000004     42.965650000000004     45.475399999999993
C      50.721650000000004     52.953450000000011     48.358099999999993
H      47.587949999999999     45.721750000000000     50.534000000000006
H      50.267150000000008     52.022550000000003     45.696399999999997
H      48.833150000000003     52.520650000000010     45.967900000000000
H      49.502650000000003     50.843850000000003     44.869799999999998
H      49.502050000000004     49.069949999999999     44.677499999999995
H      50.050950000000000     53.291850000000004     50.754500000000007
H      45.872350000000004     44.368050000000004     43.497600000000006
H      47.610250000000001     45.530750000000005     41.891599999999997
H      49.364250000000006     47.748249999999999     42.726100000000002
H      46.998049999999999     49.307450000000003     53.690299999999993
H      47.924950000000003     51.376150000000003     54.108400000000003
H      49.101950000000002     52.990550000000006     52.290300000000002
H      45.441250000000004     45.884050000000002     49.465199999999996
H      45.516849999999998     44.177450000000000     47.535899999999998
H      45.586449999999999     47.158250000000002     52.046300000000002
H      51.749649999999995     52.347450000000002     48.279899999999998
H      44.813050000000004     43.081850000000003     44.588400000000007
H      44.250350000000005     42.813450000000003     45.983599999999996
H      50.898850000000003     53.720250000000000     49.239900000000006
H      50.644849999999998     53.637149999999998     47.392700000000005
H      46.241650000000000     42.279750000000000     45.534099999999995
O      46.786250000000003     45.714350000000003     51.048599999999993
