79

C      47.443500000000000     50.119999999999990     45.986979999999988
C      50.851100000000002     43.285600000000002     50.103760000000001
C      50.639300000000006     43.618899999999996     51.557780000000001
C      48.826400000000007     49.489400000000003     45.933050000000001
C      47.485600000000005     48.193500000000000     53.125160000000001
C      46.835200000000000     50.155000000000001     47.308889999999998
C      50.846299999999999     44.569400000000002     49.374639999999992
C      47.092200000000005     49.171700000000001     52.105489999999996
C      50.154100000000000     44.909500000000008     51.971289999999989
C      48.448700000000002     47.132800000000003     52.745169999999995
C      47.285899999999998     49.983500000000006     49.715339999999998
C      49.684200000000004     46.798200000000008     48.712749999999993
C      47.693600000000004     49.714700000000008     48.265969999999989
C      50.103099999999998     45.724199999999996     49.646360000000001
C      47.801199999999994     49.139499999999998     50.804690000000001
C      49.546599999999998     45.879800000000003     51.008409999999991
C      48.951899999999995     48.984899999999996     48.056339999999999
C      49.081400000000002     47.108999999999995     51.427630000000001
C      49.338800000000006     48.033000000000001     49.094889999999999
C      48.753200000000007     48.089500000000001     50.439969999999995
C      49.602300000000000     44.984999999999999     53.427320000000002
C      48.921799999999990     46.240499999999997     53.728770000000004
C      46.826700000000002     50.448000000000008     44.658361999999997
C      47.333799999999997     50.317200000000000     43.333400000000005
C      48.705100000000002     49.992000000000004     43.406999999999996
C      49.336100000000002     49.568799999999996     44.610354999999998
C      50.927000000000007     42.020399999999995     49.509850000000007
C      50.754399999999990     41.101200000000006     50.628369999999997
C      50.552999999999997     41.266199999999998     52.061360000000001
C      50.579300000000003     42.607600000000005     52.583490000000005
C      50.507199999999997     42.767099999999999     54.085999999999991
C      50.090800000000002     44.062799999999996     54.375899999999994
C      47.232900000000001     48.510599999999997     54.420099999999998
C      46.274400000000000     49.547300000000007     54.558000000000000
C      45.378000000000000     50.170000000000002     53.614599999999989
C      46.035899999999998     50.160700000000006     52.347919999999995
C      47.992500000000007     48.010300000000001     55.643999999999998
C      48.334999999999994     46.515299999999996     55.185499999999998
C      45.340500000000006     50.844600000000000     51.293920000000007
C      45.948999999999998     50.473100000000002     50.028709999999997
C      48.918599999999998     55.160500000000013     42.638399999999997
C      48.212500000000006     54.204700000000003     42.189599999999999
C      46.568200000000004     50.525600000000011     41.950699999999998
C      47.483399999999989     53.234100000000012     41.690000000000019
C      47.572900000000004     50.736000000000004     41.002799999999993
C      47.995999999999995     52.072400000000002     40.810299999999998
C      48.244500000000002     49.618400000000008     40.656199999999998
C      49.282699999999991     52.366799999999998     40.190200000000026
C      49.447900000000004     49.824300000000008     39.974599999999988
C      50.013800000000003     51.126800000000003     39.940200000000019
H      46.004400000000004     50.627700000000004     47.483669999999996
H      51.114800000000002     43.954300000000003     48.416109999999996
H      49.558300000000003     46.551500000000004     47.693260000000002
H      45.937100000000001     50.954700000000003     44.534020999999996
H      49.631299999999996     49.933000000000007     42.602999999999994
H      50.183099999999996     48.927999999999997     44.466017000000001
H      51.222099999999998     41.702500000000001     48.484839999999998
H      50.402900000000002     40.069699999999997     50.432949999999998
H      50.314999999999998     40.402100000000004     52.701050000000002
H      50.796400000000006     41.921999999999997     54.797300000000000
H      50.111199999999997     43.874499999999998     55.494799999999991
H      46.270200000000003     49.967100000000002     55.639800000000001
H      44.777900000000002     51.000600000000006     53.748950000000001
H      48.927999999999997     48.475400000000008     55.358600000000003
H      47.335300000000004     48.046099999999996     56.540700000000001
H      48.881899999999987     46.164000000000001     56.018300000000004
H      47.391000000000005     45.853700000000003     55.172699999999999
H      45.213400000000007     51.968400000000003     51.291849999999997
H      45.609600000000000     50.365600000000001     49.140369999999997
H      48.345399999999998     55.930300000000003     43.146599999999985
H      50.019099999999995     54.848700000000008     42.810900000000011
H      46.046400000000006     49.609200000000001     41.670200000000001
H      46.048900000000003     51.495000000000005     42.206699999999991
H      46.491600000000005     53.171200000000013     42.363399999999992
H      48.026100000000000     48.635800000000003     41.176599999999986
H      49.641500000000008     53.344400000000007     39.459299999999999
H      50.013499999999993     48.954599999999999     39.929700000000011
H      51.040499999999994     51.281599999999997     39.823099999999990
N      49.527100000000004     48.960999999999999     46.938989999999997
