39

C      47.522599999999997     48.398749999999993     47.386649999999996
C      47.589100000000002     49.329549999999990     46.270850000000003
C      52.138399999999990     49.282350000000001     47.638549999999995
C      48.716499999999996     47.603450000000002     47.670250000000010
C      48.856700000000004     49.559949999999994     45.506549999999997
C      51.215299999999999     48.406450000000000     48.319550000000000
C      51.409999999999997     49.638349999999996     46.447949999999999
C      50.018199999999993     48.240749999999998     47.443349999999995
C      50.140000000000001     49.085249999999995     46.286749999999998
C      46.378799999999998     47.954649999999994     48.193150000000003
C      45.234300000000005     48.749850000000002     47.734050000000003
C      45.377700000000004     49.847349999999999     46.819550000000000
C      46.438900000000004     49.993350000000000     45.819949999999999
C      48.837400000000002     46.389350000000000     48.581149999999994
C      47.700900000000004     46.557049999999997     49.705449999999999
C      51.950799999999987     50.849849999999996     45.614950000000000
C      47.296800000000005     45.279350000000001     50.497950000000003
C      48.439300000000003     47.550649999999997     50.811949999999996
C      44.132099999999994     49.479750000000003     48.497550000000004
H      52.851799999999997     49.915450000000000     48.356549999999999
H      51.455099999999987     47.637549999999997     49.090650000000011
H      44.506600000000006     50.453650000000003     46.566749999999999
H      46.316800000000001     50.889850000000003     45.239449999999998
H      48.719099999999997     45.514350000000000     47.867649999999998
H      49.925500000000000     46.275449999999999     48.947450000000003
H      51.686099999999996     50.998849999999997     44.466050000000003
H      51.173600000000008     51.398350000000001     46.184550000000002
H      52.888599999999997     51.328349999999993     46.111550000000001
H      46.849999999999994     44.601649999999999     49.829750000000004
H      46.653300000000002     45.572449999999996     51.249450000000010
H      48.210200000000000     44.625449999999994     50.914549999999991
H      49.215599999999995     48.155849999999994     50.141050000000007
H      49.071799999999996     46.920749999999991     51.581550000000000
H      47.414100000000005     47.995249999999992     51.452550000000002
H      44.412599999999998     50.407149999999994     48.945149999999998
H      44.027100000000004     48.824350000000003     49.426749999999998
H      43.111400000000003     49.638749999999995     48.055949999999996
N      46.458200000000005     47.139449999999989     49.254350000000002
O      48.942700000000002     50.060749999999992     44.418450000000000
