62

C      47.559300000000000     46.607360000000000     48.728699999999989
C      48.041040000000010     45.525480000000002     49.620500000000000
C      45.459780000000009     48.131039999999999     52.924200000000006
C      45.870720000000006     47.038399999999996     53.604000000000006
C      46.967660000000009     47.719369999999998     49.419599999999996
C      47.720060000000004     45.443659999999994     50.936000000000000
C      45.894510000000004     48.507589999999993     51.623799999999996
C      46.688280000000006     46.030980000000000     52.953099999999999
C      46.578920000000004     47.564290000000000     50.830500000000008
C      47.149380000000008     46.486000000000004     51.691899999999997
C      47.856820000000006     46.903899999999993     47.277099999999997
C      48.981510000000014     46.109600000000000     46.890000000000008
C      49.143350000000005     44.786479999999997     47.594900000000003
C      48.784660000000002     44.479270000000000     48.864200000000004
C      44.668510000000005     49.050610000000006     53.773900000000005
C      44.339970000000008     48.932229999999990     55.024999999999999
C      44.632730000000009     47.599669999999989     55.485300000000002
C      45.496210000000005     46.610910000000004     54.873100000000001
C      47.896800000000013     48.311219999999992     46.811200000000007
C      48.339300000000009     48.508919999999989     45.338600000000007
C      49.453330000000008     47.588949999999997     45.071099999999994
C      49.880770000000005     46.705190000000002     45.955000000000005
C      47.178100000000008     49.116349999999997     48.952099999999994
C      47.538280000000007     49.384289999999993     47.592599999999997
C      47.152570000000004     50.240949999999998     49.831300000000006
C      48.265400000000014     51.397840000000002     49.636299999999999
C      49.516010000000009     51.357450000000000     50.163900000000005
C      47.596180000000004     49.272440000000003     44.329400000000000
C      48.232850000000006     50.439300000000003     40.381499999999996
C      47.862210000000005     49.546880000000002     42.865800000000000
C      49.222240000000006     50.957819999999998     41.459099999999999
C      49.162220000000005     50.434770000000000     42.721100000000000
C      50.147390000000016     51.971869999999996     41.141900000000000
C      49.989519999999999     50.591399999999993     43.869300000000003
C      51.103420000000007     52.144340000000000     42.264599999999994
C      50.972180000000009     51.529799999999994     43.600100000000005
H      47.960990000000010     44.549999999999997     51.439000000000000
H      45.283690000000007     49.374849999999995     51.158700000000003
H      46.760010000000008     44.801069999999996     52.940800000000003
H      49.472620000000006     43.776259999999994     47.205099999999995
H      48.994120000000009     43.616889999999998     49.544500000000006
H      44.547990000000006     50.036469999999994     53.451299999999996
H      43.965760000000003     49.588449999999995     55.857400000000005
H      44.500070000000008     46.995130000000003     56.550300000000000
H      45.628130000000006     45.567400000000006     55.120700000000006
H      50.290690000000005     48.113739999999993     44.408200000000001
H      50.683990000000009     46.008550000000000     45.852700000000006
H      47.773620000000008     50.327249999999992     46.893800000000006
H      47.801659999999998     52.032089999999997     48.948900000000002
H      49.896680000000003     50.442859999999996     50.590100000000000
H      50.304960000000008     52.217150000000004     50.057200000000002
H      48.410030000000006     50.707049999999995     39.449700000000000
H      47.319980000000008     50.308109999999999     44.588200000000008
H      47.041130000000010     50.552869999999999     40.785599999999995
H      48.402730000000005     49.381320000000002     40.298300000000005
H      47.084550000000007     50.021839999999997     42.463799999999999
H      48.349530000000009     48.399510000000006     42.348800000000004
H      50.208100000000009     52.383029999999991     40.120100000000001
H      49.844440000000006     49.927809999999994     44.789400000000008
H      52.034239999999997     52.383110000000002     41.830000000000005
H      51.910790000000006     51.912610000000001     44.012899999999995
O      46.206780000000009     50.736819999999994     50.459399999999995
