22

C      44.723999999999997     48.140699999999995     47.388099999999987
C      45.247700000000009     47.589100000000002     48.358900000000006
C      47.429299999999998     49.833700000000000     47.648600000000002
C      46.349699999999999     46.686600000000006     48.262900000000002
C      48.283700000000010     48.606100000000005     47.912300000000002
C      47.684399999999997     47.313600000000001     47.714200000000005
C      49.657100000000000     48.980499999999999     48.350600000000000
C      48.707899999999995     46.384100000000004     47.444599999999994
C      50.616299999999995     47.887800000000006     48.393500000000003
C      50.117100000000008     46.740500000000004     47.824200000000005
H      44.232100000000003     49.198399999999999     47.403800000000004
H      44.522199999999998     47.464200000000005     46.486300000000000
H      44.811000000000007     47.561399999999999     49.513700000000000
H      47.966000000000001     50.562300000000000     46.977999999999994
H      46.572299999999998     49.602900000000005     47.172300000000007
H      46.599299999999999     46.026900000000005     49.200500000000005
H      45.665900000000008     46.167200000000001     47.513800000000003
H      49.949100000000001     49.978699999999996     47.899900000000002
H      48.554000000000002     45.437700000000000     46.920500000000004
H      51.767899999999997     48.077000000000005     48.429900000000004
H      51.002400000000009     45.910000000000004     47.804299999999998
H      47.582300000000004     50.432500000000005     48.597200000000001
