6

C      47.619099999999996     47.783484999999999     48.102399999999989
C      48.778599999999997     48.443654999999993     48.444500000000005
H      47.349900000000005     46.589545000000001     48.060200000000009
H      46.548100000000005     47.720285000000004     47.541899999999998
H      49.451899999999995     47.553944999999999     48.458100000000002
H      49.255300000000005     49.410454999999999     48.313100000000006
