6

C      48.596499999999992     48.080749999999995     47.624589999999998
C      47.578600000000002     47.502850000000002     48.407820000000008
H      48.581200000000003     47.915249999999993     46.609630000000003
H      49.224200000000003     48.844349999999999     48.108370000000015
H      47.205099999999995     47.996249999999996     49.390369999999997
H      46.775799999999997     47.155650000000001     47.815830000000005
