6

C      48.352049999999984     48.014699999999991     48.561799999999991
C      47.642949999999999     48.217099999999995     47.558400000000006
H      47.725250000000003     48.262899999999995     49.510800000000003
H      49.402349999999998     47.641500000000001     48.597099999999998
H      48.169650000000004     48.358499999999999     46.489199999999997
H      46.597650000000002     48.333599999999997     47.839900000000000
