5

C      48.202099999999994     48.146149999999999     47.904249999999990
H      48.258600000000001     47.927480000000003     48.892149999999994
H      47.082200000000000     48.523350000000008     47.975649999999995
H      48.917800000000000     48.902090000000001     47.107850000000006
H      48.132800000000003     47.097909999999999     47.388449999999999
