22

C      50.401549999999993     47.990549999999999     46.841949999999990
C      49.162649999999999     48.120949999999993     45.866249999999994
C      49.957750000000004     47.225350000000006     48.120949999999993
C      48.045949999999998     49.111149999999995     46.289649999999995
C      48.429150000000000     47.609049999999996     48.455749999999995
C      47.552650000000000     48.419849999999997     47.655249999999995
C      47.854950000000002     47.579350000000005     49.869450000000001
C      46.146250000000002     48.701250000000002     47.837949999999992
C      46.693849999999998     48.102950000000007     50.088749999999990
C      45.757050000000000     48.539850000000001     49.114350000000002
H      51.116150000000005     48.977549999999994     46.837449999999990
H      51.312049999999999     47.510350000000003     46.200049999999990
H      48.849150000000002     47.002150000000000     45.601450000000000
H      49.619650000000000     47.961650000000006     44.883949999999999
H      50.634450000000001     47.349549999999994     48.996849999999995
H      50.460350000000005     46.075450000000004     48.148649999999989
H      47.121250000000003     49.323449999999994     45.648849999999996
H      48.780549999999998     49.924549999999996     46.328049999999990
H      48.468350000000001     47.142049999999998     50.617549999999994
H      45.402850000000001     48.900450000000006     47.122349999999997
H      46.398449999999997     48.253850000000000     51.116050000000001
H      44.687950000000001     48.957650000000001     49.322850000000003
