6

C      48.365399999999994     48.359499999999990     48.132799999999996
C      47.487699999999997     47.367599999999996     47.986699999999999
H      49.174500000000002     48.461100000000002     48.918900000000008
H      48.319099999999999     49.163300000000007     47.513500000000008
H      47.814500000000002     46.836699999999993     48.971599999999995
H      46.825499999999998     47.238699999999994     47.028400000000005
