24

C      49.351249999999993     48.505999999999993     49.667299999999990
C      50.087149999999994     49.448000000000000     48.814300000000003
C      49.970950000000002     49.433299999999988     47.437600000000003
C      49.072949999999992     48.447299999999998     47.034700000000001
C      48.157749999999993     47.580900000000000     47.774600000000000
C      48.732249999999993     47.424799999999998     49.122900000000001
C      46.781149999999997     47.028100000000002     47.704099999999997
C      45.469749999999991     48.919799999999995     47.685899999999997
C      45.712449999999990     47.684500000000000     47.199900000000000
C      45.290149999999997     47.186900000000001     46.175699999999999
C      50.465849999999989     50.420699999999997     46.789299999999997
C      48.739049999999992     46.073399999999999     49.893599999999992
H      49.524549999999991     48.478600000000000     50.801699999999997
H      50.428849999999997     50.255600000000001     49.384799999999998
H      49.319149999999993     48.173499999999997     46.051000000000002
H      46.086649999999992     49.205700000000007     48.373100000000001
H      44.518050000000002     49.170499999999997     47.655200000000001
H      45.913950000000000     47.658200000000001     45.198300000000003
H      51.481949999999998     50.695700000000002     46.868499999999997
H      50.496049999999997     50.696500000000000     45.680399999999999
H      47.753549999999990     45.303500000000000     49.755700000000004
H      49.134349999999998     45.471199999999996     49.092500000000001
H      49.255049999999997     45.998399999999997     50.715400000000002
H      46.488249999999994     46.215100000000000     48.312500000000000
