20

C      49.548249999999989     49.376199999999990     48.427349999999990
C      50.753549999999997     49.796199999999999     48.784849999999999
C      48.479849999999999     48.826499999999996     49.170449999999995
C      46.109549999999999     49.258700000000005     49.782549999999993
C      47.582749999999997     48.244100000000003     48.109749999999998
C      46.202950000000001     48.386400000000009     48.635050000000000
C      47.668849999999992     47.827900000000000     46.744949999999996
C      45.212350000000001     47.436800000000005     48.087550000000000
C      46.497249999999994     47.119000000000000     46.223549999999996
C      45.620549999999994     46.615600000000001     46.975050000000003
H      49.775049999999993     49.129999999999995     47.440149999999996
H      51.705650000000006     49.970600000000005     48.110949999999995
H      51.019750000000002     49.671999999999997     49.866149999999998
H      48.423850000000002     48.715000000000003     50.185350000000007
H      46.546449999999993     50.072400000000002     49.500449999999994
H      45.490049999999997     49.102199999999996     50.756350000000005
H      48.471049999999998     48.115899999999996     46.168749999999996
H      44.294349999999994     47.125799999999998     48.778749999999995
H      46.516549999999995     46.744600000000005     45.243649999999995
H      44.814250000000001     45.927599999999998     46.630950000000006
