22

C      49.369449999999993     45.807949999999991     47.162549999999989
C      50.136749999999999     46.429049999999997     48.364749999999987
C      47.823050000000002     45.807349999999992     47.552850000000007
C      49.699550000000002     47.939249999999994     48.724750000000000
C      47.530749999999998     47.215049999999998     48.438850000000002
C      48.272250000000000     48.330849999999991     48.699849999999998
C      46.158950000000004     47.775649999999992     48.558450000000008
C      47.928550000000001     49.689149999999991     49.132249999999999
C      45.682549999999999     49.157350000000001     48.426449999999988
C      46.709850000000003     50.137049999999995     48.677049999999994
H      49.731450000000009     44.909150000000004     46.938749999999999
H      49.479349999999997     46.433950000000003     46.281050000000000
H      51.304249999999996     46.152250000000002     48.356650000000002
H      49.834249999999997     46.060749999999992     49.493749999999991
H      47.423250000000003     44.825650000000003     47.880049999999997
H      47.117850000000004     46.129449999999999     46.513549999999995
H      50.155850000000001     48.712550000000000     48.137050000000002
H      50.109850000000002     48.204950000000004     49.718950000000000
H      45.337050000000005     47.048049999999996     48.778449999999992
H      48.673349999999999     50.340249999999990     49.351749999999996
H      44.695750000000004     49.432650000000002     48.098050000000001
H      46.642449999999997     51.174349999999997     48.407750000000000
