16

C      46.234299999999990     49.349799999999995     48.576599999999992
C      47.503999999999998     47.263500000000001     50.202399999999997
C      46.837399999999995     48.210700000000003     48.071299999999994
C      47.939500000000002     47.644500000000001     49.093499999999999
C      46.823399999999999     47.696600000000004     46.683399999999999
C      49.073099999999997     47.278300000000002     48.424799999999998
C      48.238399999999999     47.739899999999999     46.211299999999994
C      49.190400000000004     47.285200000000003     47.034499999999994
H      45.617500000000000     49.873199999999997     48.124600000000001
H      45.881299999999996     49.629500000000007     49.790599999999998
H      47.589099999999995     46.126800000000003     50.392899999999997
H      47.058199999999992     47.918099999999995     50.888199999999998
H      46.156199999999998     47.245300000000000     45.949799999999996
H      49.894699999999993     47.265900000000002     49.183199999999999
H      48.401999999999994     47.743600000000001     45.111800000000002
H      50.382500000000000     46.957499999999996     46.698999999999998
