16

C      46.392399999999988     49.450349999999993     48.221149999999987
C      46.089499999999994     46.319649999999996     47.986549999999994
C      47.566299999999998     48.811650000000000     47.830449999999999
C      47.088899999999995     47.401849999999996     47.866050000000001
C      48.921799999999998     49.563550000000006     47.983649999999997
C      48.305599999999998     46.611149999999995     47.695449999999994
C      49.838099999999997     48.654150000000001     48.035849999999996
C      49.545299999999997     47.237549999999999     47.861149999999995
H      46.490199999999987     50.654049999999998     48.050550000000001
H      45.317099999999996     48.991650000000007     48.355649999999997
H      45.016499999999994     46.592150000000004     47.644350000000003
H      46.481600000000000     45.345950000000002     47.883949999999999
H      48.874199999999995     50.590649999999997     48.266649999999998
H      48.278499999999994     45.598749999999995     47.664450000000002
H      50.983500000000006     48.860550000000003     48.297349999999994
H      50.410499999999999     46.665649999999999     47.946150000000003
