57

C      47.239399999999989     46.048799999999993     46.983824999999989
C      47.851100000000002     45.508299999999998     48.277924999999996
C      51.037300000000002     48.848300000000009     46.879224999999991
C      47.552099999999996     47.188900000000004     46.217424999999992
C      49.178500000000014     45.932200000000002     48.321524999999994
C      49.751700000000000     48.989699999999999     46.196124999999995
C      50.857100000000003     47.725200000000001     47.612724999999998
C      48.829200000000000     47.870600000000003     46.653025000000000
C      49.570100000000011     47.158400000000000     47.710124999999991
C      45.999600000000001     45.471600000000002     46.653824999999998
C      45.299999999999997     44.548000000000002     47.551924999999997
C      45.793899999999994     44.323700000000002     48.906224999999992
C      47.133899999999997     44.701200000000000     49.254925000000000
C      45.242999999999995     45.801499999999997     45.434424999999990
C      43.934899999999999     45.125200000000000     45.181224999999998
C      43.503699999999995     44.040700000000001     46.064924999999988
C      44.116000000000000     43.699300000000001     47.237924999999990
C      45.904600000000002     46.752000000000002     44.560024999999996
C      47.017099999999999     47.329999999999998     44.924025000000000
C      45.324900000000000     43.463999999999999     49.969924999999989
C      46.071899999999999     42.853000000000002     50.973724999999988
C      47.191199999999995     43.530500000000004     51.523598000000000
C      47.704300000000003     44.554499999999997     50.586624999999998
C      49.741000000000014     45.733300000000000     49.627224999999996
C      49.134399999999999     44.919100000000000     50.594924999999989
C      43.354299999999995     42.323799999999999     47.751424999999998
C      49.237400000000008     50.214600000000004     45.894124999999988
C      49.100999999999999     53.610799999999998     44.318024999999992
C      50.138099999999994     51.166100000000000     45.288624999999996
C      50.141000000000005     52.611000000000004     45.014424999999989
C      51.296700000000001     50.402599999999993     44.868224999999995
C      51.449900000000000     53.065899999999999     44.720324999999988
C      52.578000000000003     51.031599999999997     44.894624999999991
C      52.693899999999999     52.429400000000001     44.900824999999998
H      51.889600000000002     49.407399999999996     46.535824999999988
H      49.217500000000001     47.750300000000010     43.759424999999993
H      51.840999999999994     47.176400000000001     47.926625000000001
H      43.096100000000007     45.271700000000003     44.347624999999994
H      42.713399999999993     43.339599999999997     45.762024999999994
H      45.514799999999994     46.799500000000002     43.453424999999996
H      44.345799999999997     43.090499999999999     49.833124999999995
H      45.528999999999996     42.239100000000001     51.856872000000003
H      47.547100000000000     43.193899999999999     52.574674999999999
H      50.807000000000002     46.013300000000001     49.913224999999997
H      49.252499999999998     45.041100000000000     51.687707000000003
H      42.283299999999997     42.788100000000000     47.886224999999996
H      43.920500000000004     41.640900000000002     48.369624999999999
H      48.307900000000004     53.638199999999998     45.232024999999993
H      48.226399999999998     50.607900000000001     46.191125000000000
H      48.628700000000009     53.163499999999999     43.425325000000001
H      49.771000000000001     54.540700000000001     44.281224999999992
H      51.405400000000000     49.197500000000005     44.634424999999993
H      51.555999999999997     54.067200000000000     44.225624999999994
H      53.491600000000005     50.392899999999997     44.555524999999989
H      53.716700000000003     52.884799999999998     45.051724999999990
H      43.506399999999999     41.459299999999999     47.061324999999997
S      48.098400000000012     48.286600000000000     43.638424999999998
