16

C      47.728249999999996     45.701269999999980     48.952849999999984
C      47.120149999999995     46.925069999999991     49.450749999999992
C      46.826049999999995     49.270562999999996     49.038649999999997
C      47.436049999999994     48.100070000000002     48.659149999999990
C      46.930549999999997     50.463890000000006     48.262849999999993
C      48.365449999999996     48.100070000000002     47.629449999999999
C      47.798050000000003     50.333640000000003     47.007849999999998
C      48.814350000000005     49.213327000000007     46.903749999999995
H      48.340249999999997     45.478169999999992     48.205749999999988
H      47.150850000000005     44.603870000000001     48.938849999999995
H      46.251350000000002     49.060303000000005     49.892749999999999
H      46.108850000000004     46.780169999999998     49.887049999999995
H      46.404550000000000     51.396129999999999     48.608749999999993
H      49.195250000000001     47.178469999999990     47.548549999999999
H      47.514949999999999     50.838600000000000     46.107250000000001
H      49.891149999999996     49.286167000000006     46.465249999999990
