59

C      43.785249999999984     47.190699999999993     48.463349999999991
C      50.962750000000000     46.672400000000003     49.958749999999995
C      44.167149999999992     47.683100000000003     47.126949999999994
C      51.324449999999999     47.811500000000002     49.174650000000014
C      44.784449999999993     46.873399999999997     49.328750000000014
C      49.632149999999996     46.369599999999998     50.343850000000003
C      45.750850000000000     49.162500000000001     45.889250000000004
C      50.625450000000001     48.630199999999995     46.754149999999996
C      47.067949999999996     49.401199999999996     45.619150000000005
C      49.597449999999995     48.856500000000004     45.816850000000002
C      47.296049999999994     47.073299999999996     49.927949999999996
C      45.494349999999997     48.231199999999994     46.920749999999998
C      50.313249999999996     47.971499999999999     48.145449999999997
C      48.219250000000002     48.683699999999995     46.165149999999997
C      46.068049999999999     47.272200000000005     49.051649999999995
C      48.660950000000000     47.237000000000002     49.701050000000009
C      46.593350000000001     47.723300000000002     47.794349999999994
C      48.944450000000003     47.880299999999998     48.371449999999996
C      47.880349999999993     48.192399999999999     47.396349999999998
C      42.364850000000004     46.571700000000000     48.207449999999994
C      42.067750000000004     46.237299999999998     46.820650000000001
C      42.248350000000002     47.073600000000006     45.777550000000005
C      43.140149999999991     48.053900000000006     46.156250000000000
C      43.285449999999997     49.385500000000000     45.481049999999996
C      44.552449999999993     49.821099999999994     45.230950000000007
C      51.979550000000003     46.268599999999999     51.045450000000002
C      53.215649999999997     46.620700000000006     50.699449999999999
C      53.658050000000003     47.529000000000003     49.692350000000005
C      52.744950000000003     48.299200000000006     49.192250000000001
C      41.439149999999998     46.404699999999998     49.290250000000000
C      49.101150000000004     45.253000000000007     51.160050000000012
C      44.343049999999991     45.985099999999996     50.477950000000007
C      47.280450000000002     50.500000000000007     44.476749999999996
C      54.365849999999995     46.163500000000006     51.684349999999995
H      55.052650000000000     45.584499999999998     51.110849999999999
H      40.886949999999999     45.710299999999997     49.968950000000007
H      51.591349999999991     48.850100000000005     46.295450000000002
H      49.833249999999992     49.371400000000001     44.785049999999998
H      47.632249999999999     51.402899999999995     44.795850000000002
H      47.110249999999994     46.864500000000000     50.991450000000000
H      41.302449999999993     45.545499999999997     46.904049999999998
H      42.195349999999991     49.714500000000008     44.970050000000001
H      44.688350000000000     50.815999999999995     44.839950000000002
H      51.867750000000001     45.720999999999997     52.034650000000013
H      52.778649999999999     49.215200000000003     48.575450000000004
H      40.661749999999998     46.942900000000002     48.840750000000014
H      44.497450000000001     46.483899999999998     51.478849999999994
H      48.437049999999999     44.597100000000005     50.649749999999997
H      55.338250000000002     48.345000000000006     50.333150000000003
H      41.256050000000002     46.447700000000005     44.233149999999995
H      43.364049999999992     45.409600000000005     50.563649999999996
H      44.812649999999991     45.080500000000008     50.466650000000001
H      48.285249999999991     50.472600000000007     43.864450000000005
H      46.642749999999992     50.396999999999998     43.619349999999997
H      55.034449999999993     46.876799999999996     52.076449999999994
H      53.818849999999998     45.427600000000005     52.350949999999997
O      49.103449999999995     45.291999999999994     52.380650000000003
O      55.026849999999996     48.010200000000005     49.429749999999999
O      41.383550000000000     47.274600000000000     44.565950000000001
