5

C      48.365649999999988     47.869049999999994     48.010399999999990
H      47.101149999999997     47.977950000000007     47.878800000000005
H      48.898850000000003     48.851749999999996     48.386299999999999
H      48.578349999999993     47.148250000000004     48.840700000000005
H      48.499850000000002     47.543450000000007     47.159299999999995
