16

C      47.970949999999988     48.419499999999999     50.020099999999992
C      45.680249999999994     48.250200000000000     48.104100000000003
C      47.987450000000003     47.856699999999996     48.629300000000001
C      46.886350000000000     48.133400000000002     47.742599999999996
C      49.266749999999995     47.108100000000000     48.359299999999998
C      47.334349999999993     47.985400000000006     46.408999999999999
C      49.818449999999991     47.305500000000002     47.157399999999996
C      48.665849999999999     47.558799999999998     46.276299999999999
H      49.005249999999997     48.271400000000007     50.480699999999999
H      47.098849999999992     48.337799999999994     50.728700000000003
H      45.108550000000001     49.303900000000006     48.266300000000001
H      45.141349999999996     47.285000000000004     47.893599999999999
H      50.224950000000000     46.696099999999994     48.865800000000000
H      46.734549999999992     48.306000000000004     45.648899999999998
H      50.891449999999999     47.349499999999999     46.802199999999999
H      49.294649999999997     47.453399999999995     45.271299999999997
