19

C      47.336549999999995     46.670149999999992     50.095699999999994
C      46.594949999999997     47.829650000000015     50.263100000000001
C      48.161149999999992     46.584950000000006     48.863199999999999
C      47.110149999999997     49.229150000000004     49.950499999999998
C      48.291449999999998     47.841150000000013     48.032100000000007
C      47.499350000000007     48.960350000000005     48.513200000000005
C      49.338149999999999     47.911150000000006     46.893099999999997
C      47.305750000000003     49.749350000000007     47.348900000000000
C      48.873550000000009     48.751850000000005     45.885300000000001
C      48.007049999999992     49.803049999999999     46.121100000000006
H      46.652149999999999     45.797449999999998     50.462800000000009
H      46.061050000000002     47.890349999999998     51.192500000000003
H      47.878150000000005     45.520250000000004     48.613700000000001
H      48.409250000000000     49.553150000000002     50.389200000000002
H      46.591250000000002     50.199950000000001     50.496900000000004
H      49.938949999999998     47.051649999999995     46.565199999999997
H      46.509149999999998     50.479749999999996     47.590100000000000
H      49.266550000000009     48.798050000000003     44.807499999999997
H      47.451949999999997     50.304450000000003     45.180500000000002
