51

C      45.521499999999996     47.349949999999993     48.838746999999991
C      46.398499999999999     48.380449999999996     48.405346999999992
C      46.117599999999996     46.045449999999988     48.868046999999990
C      52.127799999999993     43.984949999999998     48.110247000000001
C      52.519400000000005     46.439649999999986     48.738446999999994
C      50.164100000000005     43.110749999999996     47.659346999999997
C      47.847099999999998     48.256549999999990     48.298147000000000
C      50.597800000000007     47.860749999999996     48.244846999999993
C      47.983000000000004     44.204449999999994     48.334947000000000
C      51.689300000000003     45.255949999999999     48.631446999999994
C      47.547899999999998     45.813249999999996     48.623947000000001
C      49.448200000000000     44.203949999999992     47.924546999999990
C      48.264700000000005     46.836049999999986     48.247647000000001
C      49.768000000000001     46.758349999999993     48.018946999999997
C      50.334100000000007     45.408249999999995     48.199946999999995
C      48.693200000000004     49.387049999999988     48.015346999999991
C      50.164699999999996     49.120549999999994     48.088646999999995
C      44.053299999999993     47.477749999999986     48.279747000000000
C      43.694299999999998     48.309149999999988     47.252847000000003
C      44.537599999999998     49.482649999999992     47.200446999999997
C      45.789199999999994     49.582449999999994     47.804546999999999
C      46.682599999999994     50.836949999999987     47.905146999999999
C      48.115300000000005     50.727849999999989     48.201246999999995
C      45.290400000000005     45.032749999999993     49.363997000000012
C      44.006000000000000     45.251649999999998     49.289280000000005
C      43.318399999999997     46.171449999999993     48.482647000000000
C      45.902400000000000     51.917949999999990     47.373246999999992
C      46.708399999999997     52.751049999999992     46.926346999999993
C      51.185299999999998     50.224349999999987     48.425546999999995
C      43.635400000000004     50.705949999999987     47.085847000000001
H      52.651600000000002     48.626949999999994     48.832847000000001
H      47.981499999999997     43.586749999999995     49.133623000000000
H      53.200100000000006     44.090849999999989     48.046246999999994
H      49.547899999999998     42.226550000000003     47.492346999999995
H      47.463399999999993     43.781849999999991     47.589546999999996
H      42.971299999999999     48.076649999999987     46.296646999999993
H      45.894899999999993     44.188249999999996     49.901752999999999
H      42.914900000000003     44.773249999999990     49.776096000000010
H      42.523799999999994     45.767349999999993     48.015946999999997
H      47.363000000000000     52.445449999999994     46.098247000000001
H      48.706299999999999     51.432249999999996     48.188547000000000
H      50.484999999999999     50.989749999999987     47.941246999999990
H      51.607900000000001     50.265949999999989     49.517380000000003
H      51.940899999999999     50.144749999999988     47.619346999999991
H      46.439300000000003     53.773449999999997     46.430246999999994
H      43.405199999999994     51.051149999999993     48.145146999999994
H      43.058800000000005     50.602549999999994     46.257346999999996
N      51.475200000000001     43.020249999999990     47.598146999999997
N      51.915499999999994     47.702349999999996     48.675646999999998
O      44.513800000000003     52.020149999999987     46.835646999999994
O      53.476200000000006     46.110249999999994     49.395247999999995
