22

C      49.435339999999989     49.195799999999991     51.023249999999990
C      49.796499999999995     48.992199999999997     49.695149999999998
C      47.023000000000003     46.336900000000000     49.558850000000000
C      49.675129999999996     47.534399999999998     49.209350000000001
C      47.607599999999991     46.944399999999995     48.265549999999998
C      48.844912999999991     47.429400000000001     47.840949999999999
C      46.610599999999977     46.941499999999998     47.206049999999998
C      49.157994999999993     47.588299999999997     46.513749999999995
C      47.058299999999981     46.889099999999999     45.865749999999998
C      48.430455499999994     46.912099999999995     45.516249999999999
H      46.495299999999986     46.942399999999999     50.153449999999999
H      48.951855999999992     48.354599999999998     51.572650000000003
H      49.572339999999997     50.417999999999999     51.534550000000003
H      50.504599999999996     46.923699999999997     48.784250000000000
H      47.577999999999989     45.792699999999996     50.388350000000003
H      46.072000000000003     45.582000000000001     49.347250000000003
H      49.247044999999993     46.919999999999995     50.030050000000003
H      50.097499999999997     50.012400000000007     49.110750000000003
H      45.495400000000004     47.150999999999996     47.385150000000003
H      49.940739999999991     48.086500000000001     46.090949999999999
H      46.278599999999997     47.062399999999997     45.300350000000002
H      48.877054999999991     46.710400000000000     44.427349999999997
