74

C      43.426874999999995     46.559799999999989     48.807459999999992
C      44.260524999999994     45.459999999999994     48.387000000000000
C      51.811365000000002     46.309599999999996     44.987640000000027
C      44.169334999999997     47.795599999999993     48.972710000000006
C      52.325764999999997     47.483399999999989     45.288140000000027
C      50.402664999999999     45.846800000000002     45.477440000000016
C      45.448325000000004     45.785899999999998     47.486969999999999
C      52.534965000000007     49.302499999999995     46.844940000000008
C      51.648164999999999     49.979600000000005     47.681260000000009
C      49.456465000000001     51.235799999999998     48.478369999999998
C      48.220864999999996     50.711399999999998     49.056290000000004
C      46.092464999999997     49.231899999999996     49.075600000000009
C      48.211165000000001     46.641399999999997     46.397940000000034
C      51.639765000000004     48.373099999999994     46.284740000000028
C      50.199165000000001     50.095100000000002     47.868570000000005
C      45.519404999999999     48.101399999999998     48.470350000000010
C      49.597465000000000     46.715800000000002     46.173340000000010
C      47.399065000000000     49.672600000000003     48.436340000000001
C      46.110064999999999     47.044499999999999     47.702939999999998
C      47.491365000000002     47.479100000000003     47.316567000000006
C      50.216464999999999     48.075800000000001     46.450040000000016
C      48.157964999999997     48.596999999999994     47.842150000000004
C      49.413265000000003     48.962599999999995     47.443954000000005
C      46.321964999999999     44.941699999999997     46.681161000000003
C      47.582164999999996     45.287300000000002     45.981939999999994
C      48.351064999999998     44.280699999999996     45.439540000000022
C      49.728865000000006     44.749299999999998     45.068040000000011
C      42.417655000000003     46.106200000000001     49.702470000000005
C      42.047854999999998     44.717299999999994     49.756010000000003
C      42.703785000000003     43.787700000000001     48.750460000000004
C      43.914205000000003     44.168799999999997     48.021950000000004
C      44.471724999999999     43.269899999999993     46.883192000000008
C      46.019565000000000     43.503599999999992     46.718292000000005
C      43.473535000000005     48.834499999999991     49.579909999999998
C      42.060665000000000     48.500999999999998     50.077750000000009
C      42.015124999999998     46.936899999999994     50.840260000000015
C      45.743945000000004     49.239399999999996     50.523210000000006
C      53.292265000000000     53.000699999999995     49.246720000000010
C      50.347564999999996     51.641599999999997     50.076290000000000
C      52.986065000000004     51.723299999999995     49.527070000000009
C      51.779964999999997     51.171599999999998     50.082080000000005
C      54.027165000000004     50.708799999999997     49.279970000000006
C      52.031264999999998     50.107599999999998     50.943250000000006
C      54.084264999999995     49.507799999999996     49.806080000000009
C      52.983965000000005     49.131599999999992     50.749589999999998
H      52.023265000000002     45.591200000000001     44.163640000000001
H      53.242364999999999     47.752899999999997     44.921740000000014
H      53.600964999999995     49.433700000000002     46.966065999999998
H      52.214964999999999     50.519599999999997     48.415030000000002
H      49.746265000000001     52.298900000000003     48.506259999999997
H      47.776064999999996     51.361999999999995     49.824360000000013
H      47.896165000000003     43.311899999999994     45.069140000000019
H      50.221364999999999     43.968099999999993     44.875440000000012
H      41.532935000000002     44.188800000000001     50.434310000000011
H      42.209564999999998     42.712699999999998     48.787700000000001
H      44.273035000000000     42.212599999999995     47.157149000000004
H      43.869135000000007     43.590800000000002     46.063640000000021
H      46.860965000000000     42.765599999999992     46.215040000000016
H      46.456865000000001     43.310099999999998     47.980620000000002
H      41.035834999999999     46.717699999999994     50.926090000000016
H      43.680434999999996     49.866199999999999     49.342650000000006
H      41.434464999999996     49.206800000000001     50.726970000000009
H      41.449455000000000     48.375900000000001     49.225850000000008
H      42.650044999999999     47.062500000000000     51.836359999999999
H      45.379725000000001     48.366099999999996     51.012000000000000
H      54.268965000000001     53.235399999999998     48.786070000000009
H      52.558965000000001     53.787400000000005     49.493970000000004
H      49.659664999999997     51.021999999999998     50.761940000000010
H      50.208765000000000     52.738799999999998     50.003799999999998
H      54.832765000000002     50.999399999999994     48.428139999999999
H      51.525565000000007     49.732599999999998     51.666060000000016
H      54.964165000000001     48.718400000000003     49.495030000000000
H      53.363064999999999     48.113000000000000     51.019690000000011
O      45.750494999999994     50.196600000000004     51.260100000000008
