6

C      48.395445999999986     48.079799999999992     48.145249999999990
C      47.054035000000006     47.704499999999996     48.075850000000003
H      46.561635000000010     48.747000000000000     47.984949999999998
H      48.632939999999991     49.162000000000006     48.116450000000000
H      46.845835000000001     46.837999999999994     47.512349999999998
H      49.438364999999990     47.414999999999992     48.487650000000002
