6

C      48.481449999999995     48.145999999999987     48.464149999999989
C      47.573349999999998     48.053299999999993     47.438650000000003
H      48.107349999999990     48.233000000000004     49.551650000000002
H      49.621350000000000     48.072599999999994     48.386449999999996
H      48.145750000000000     47.766999999999996     46.448349999999998
H      46.378650000000000     48.178799999999995     47.653950000000002
