22

C      45.659399999999991     47.157649999999990     48.293149999999997
C      46.505099999999999     46.091149999999992     47.650249999999993
C      46.058300000000003     48.665849999999999     47.902549999999998
C      47.890100000000004     46.167449999999995     48.139149999999994
C      47.636700000000005     48.672949999999993     47.977849999999997
C      48.595299999999995     47.595749999999988     47.876049999999999
C      48.331199999999995     49.862949999999998     47.803049999999992
C      49.969899999999996     47.650749999999995     47.394950000000001
C      49.754000000000005     50.014350000000000     47.368950000000005
C      50.397000000000006     48.927649999999993     46.962749999999993
H      44.615099999999998     46.728049999999996     48.231649999999995
H      45.849900000000005     46.886549999999993     49.350950000000005
H      46.579200000000000     46.217049999999993     46.649049999999995
H      46.119500000000002     45.025849999999998     47.957649999999994
H      45.670700000000011     49.529849999999989     48.526050000000005
H      45.492999999999995     48.883049999999997     46.886850000000003
H      48.402600000000007     45.315549999999995     47.678649999999998
H      47.852100000000007     45.742149999999995     49.138249999999992
H      50.477500000000006     46.729849999999992     47.479649999999999
H      50.430700000000002     50.974150000000002     46.951050000000002
H      51.384900000000002     49.104149999999997     46.695450000000001
H      47.927000000000007     50.770949999999992     47.479350000000004
