43

C      48.293799999999990     44.948349999999991     47.309649999999991
C      48.338200000000001     45.551549999999999     45.948650000000001
C      44.512799999999999     47.985450000000007     48.594549999999998
C      44.810700000000004     48.671349999999997     47.284250000000000
C      47.194099999999999     45.334250000000004     48.127450000000010
C      47.456600000000002     46.605349999999994     45.678250000000006
C      45.517499999999998     46.978349999999999     48.744950000000003
C      45.633599999999994     48.169050000000006     46.233949999999993
C      46.629300000000001     46.603949999999990     47.837050000000005
C      46.574900000000000     47.239649999999990     46.583849999999998
C      49.631099999999996     44.766050000000000     47.883350000000007
C      50.671299999999995     44.801449999999996     46.933149999999998
C      50.591599999999993     44.839549999999996     45.490549999999999
C      49.467599999999997     45.435250000000003     44.943550000000002
C      43.628200000000000     48.667149999999999     49.366050000000001
C      43.662700000000001     50.638249999999992     48.330950000000001
C      44.151499999999999     49.929549999999999     47.101849999999999
C      49.676499999999997     44.316250000000004     49.346950000000007
C      51.025399999999998     44.214549999999996     49.750249999999994
C      52.087799999999994     44.775749999999995     48.857550000000003
C      52.026699999999998     44.582249999999995     47.484849999999994
C      48.440800000000003     44.244049999999994     50.137550000000005
C      47.218799999999995     44.729750000000003     49.533850000000001
C      46.083599999999997     45.003350000000005     50.325550000000007
C      45.237000000000002     46.089949999999995     49.800150000000002
C      43.817599999999999     52.064050000000002     47.774150000000006
H      47.414800000000000     47.042650000000002     44.635450000000006
H      45.435200000000002     48.582349999999998     45.108850000000004
H      51.583700000000000     44.889450000000004     44.940550000000002
H      49.477799999999995     45.441250000000004     43.895550000000000
H      43.035800000000002     48.145350000000001     50.252150000000000
H      44.413499999999999     50.360350000000004     46.088049999999996
H      51.366800000000005     43.476250000000000     50.505549999999999
H      52.964199999999998     44.867049999999999     49.642650000000003
H      52.821199999999997     44.111950000000000     46.978250000000003
H      45.926700000000004     44.285649999999997     51.353849999999994
H      44.210000000000001     46.302450000000000     50.222849999999994
H      47.859299999999998     43.705350000000003     52.104450000000000
H      43.506799999999998     52.304949999999998     46.830250000000007
H      43.148099999999999     52.523750000000000     48.584850000000003
H      44.798099999999998     52.522950000000002     47.850350000000006
N      43.329799999999999     50.014550000000007     49.350350000000006
O      48.481999999999999     43.692850000000000     51.332250000000002
