17

C      46.232999999999990     49.860450000000000     46.102199999999996
C      48.355299999999993     47.623349999999995     46.705399999999997
C      47.227200000000003     48.059050000000006     47.660899999999998
C      47.473499999999994     47.599849999999996     48.941499999999991
C      46.463400000000000     48.958549999999995     47.393099999999990
C      48.684099999999994     47.016349999999996     49.409399999999991
C      49.554899999999996     46.234950000000005     49.949699999999993
H      45.508699999999997     50.416249999999998     46.498400000000004
H      46.913400000000003     50.479149999999997     45.614499999999992
H      49.184599999999996     45.520850000000003     50.734999999999999
H      48.133999999999993     48.036850000000008     45.560500000000005
H      49.071000000000005     48.412150000000004     47.037799999999990
H      48.616199999999999     46.648550000000007     46.908299999999997
H      45.643999999999998     49.266349999999996     45.265000000000001
H      45.344000000000001     48.873049999999999     47.504099999999994
H      46.421900000000001     47.554250000000003     49.452500000000001
H      50.655999999999999     46.451950000000004     49.745300000000000
