18

C      45.686939999999986     49.288699999999999     47.620799999999988
C      47.021039999999999     46.507700000000000     48.264499999999998
C      46.806539999999998     49.582000000000008     46.976500000000001
C      47.992639999999994     47.426500000000004     48.192100000000011
C      47.963939999999994     48.842500000000001     47.607500000000002
C      49.169017000000004     46.954200000000000     49.079700000000003
C      49.144513000000003     49.593800000000002     47.498900000000006
C      50.153210000000001     47.808199999999999     49.235399999999998
C      50.110700000000008     49.094300000000004     48.463800000000006
H      44.904039999999995     50.070200000000000     47.205799999999996
H      45.610439999999997     48.539400000000001     48.563800000000001
H      45.920739999999995     46.611800000000002     47.959400000000002
H      47.143540000000002     45.451300000000003     48.492999999999995
H      46.907139999999998     50.430900000000008     46.318600000000004
H      49.159936999999999     46.122600000000006     49.532800000000009
H      49.479167000000004     50.548699999999997     46.730500000000006
H      51.095960000000005     47.515100000000004     49.681399999999996
H      50.808059999999998     49.966600000000000     48.603999999999999
