53

C      49.021949999999997     45.998599999999996     49.661049999999989
C      50.282750000000007     46.144199999999998     48.967050000000000
C      43.214650000000006     51.805900000000008     45.487449999999995
C      49.969350000000006     49.922600000000003     44.468550000000008
C      47.715649999999997     46.519199999999998     49.171250000000001
C      44.408250000000010     51.667800000000000     46.146349999999998
C      48.647850000000005     50.348100000000017     43.904949999999999
C      50.295950000000005     47.292100000000005     48.093350000000001
C      50.265950000000004     48.936800000000005     45.465850000000003
C      46.482650000000007     50.767600000000002     44.902649999999994
C      46.616349999999997     47.801000000000002     47.249449999999996
C      45.543950000000009     51.676100000000005     44.952650000000006
C      47.907150000000001     47.221500000000006     47.852450000000005
C      47.607250000000008     50.026200000000003     44.725750000000005
C      49.071849999999998     47.737800000000007     47.364750000000001
C      44.557450000000003     52.261000000000010     44.028149999999997
C      49.073350000000005     48.584100000000007     46.049149999999997
C      46.575749999999999     48.695100000000011     46.211950000000002
C      47.729250000000008     49.045200000000008     45.745050000000006
C      51.536250000000010     47.897199999999998     47.448149999999998
C      51.542150000000007     48.646100000000004     46.170950000000005
C      49.109549999999999     45.093400000000003     50.798349999999999
C      50.263950000000008     44.916400000000010     51.637749999999997
C      51.509050000000002     45.014700000000005     50.864450000000005
C      51.551450000000003     45.995699999999999     49.688649999999996
C      52.631150000000005     46.776700000000005     49.334450000000004
C      52.716250000000002     47.649100000000004     48.172849999999997
C      46.850549999999998     46.963400000000007     49.935450000000003
C      52.461349999999996     49.783799999999999     44.323350000000005
C      51.274650000000008     50.326500000000010     43.745350000000002
C      52.714150000000004     48.997900000000001     45.586550000000003
C      49.879850000000005     43.906500000000008     52.701250000000002
C      44.067050000000009     51.687200000000004     47.524950000000004
H      42.235450000000000     51.803600000000003     45.950950000000006
H      45.098250000000007     52.803899999999999     43.152349999999998
H      45.770350000000008     49.084400000000016     45.598950000000002
H      45.812150000000003     47.342300000000009     47.866150000000005
H      52.249650000000003     44.319500000000005     51.134150000000005
H      53.631850000000000     46.799999999999997     49.714449999999999
H      53.764550000000000     47.641599999999997     47.563749999999999
H      46.944850000000002     46.285800000000009     50.873950000000008
H      45.622250000000008     47.071900000000014     50.000050000000002
H      47.729849999999999     50.188600000000008     42.202849999999998
H      51.199650000000005     50.900100000000009     42.758049999999997
H      53.567750000000004     50.026000000000010     44.009850000000000
H      53.698350000000005     48.923800000000014     46.047550000000001
H      50.182749999999999     43.945500000000010     53.797150000000002
H      44.529550000000000     50.975000000000009     48.355750000000000
H      44.489649999999997     52.453200000000010     48.023949999999999
H      48.100450000000009     44.407899999999998     50.847949999999997
N      43.327449999999999     52.329000000000008     44.282849999999996
O      48.926450000000003     43.196100000000001     52.478849999999994
O      48.652950000000004     50.456699999999998     42.590350000000001
