6

C      47.366904999999988     47.959099999999992     47.953099999999999
C      48.671125000000004     47.949900000000000     48.127600000000001
H      46.938715000000002     48.963700000000003     48.084699999999998
H      46.840694999999997     47.036299999999997     47.519400000000005
H      49.126175000000003     48.944500000000005     48.480599999999995
H      49.159305000000003     47.114000000000004     47.896699999999996
