17

C      48.755034999999992     47.244189999999996     47.588849999999994
C      48.417335000000001     46.347630000000002     48.590950000000007
C      47.378125000000004     46.744070000000001     49.497350000000012
C      46.199565000000000     47.368410000000004     48.987850000000009
C      46.477764999999998     47.790759999999999     47.753350000000012
C      47.691025000000003     48.213909999999998     47.103350000000006
C      50.134515000000000     46.914279999999998     47.246250000000003
C      48.131805000000000     49.522720000000000     46.530650000000009
H      49.107445000000006     45.581519999999998     48.766750000000002
H      47.568784999999998     46.564280000000004     50.551749999999998
H      45.035834999999999     47.285539999999997     49.498649999999998
H      45.828544999999998     48.588039999999999     47.139850000000010
H      50.964165000000001     46.504130000000004     48.179550000000006
H      48.232195000000004     49.592680000000001     45.448250000000002
H      49.071005000000007     49.683660000000003     47.046250000000001
H      47.779015000000001     50.418480000000002     46.992950000000008
O      50.642115000000004     47.455050000000000     46.362250000000003
