16

C      47.716799999999992     50.140399999999993     47.045749999999998
C      46.883600000000008     49.329099999999997     49.663750000000007
C      48.133100000000006     48.882799999999996     47.606950000000012
C      47.611499999999999     48.610399999999998     48.959550000000007
C      48.930300000000010     48.044800000000002     46.729250000000008
C      48.130699999999997     47.470300000000002     49.537150000000011
C      49.216300000000011     46.796100000000003     47.294850000000011
C      48.580600000000011     46.576499999999996     48.515150000000006
H      47.504800000000010     50.158999999999999     50.160950000000014
H      48.249000000000002     50.293499999999995     46.159150000000011
H      46.831200000000003     50.529899999999998     47.572250000000011
H      46.269500000000001     49.883200000000002     48.895350000000008
H      49.282699999999998     48.177399999999999     45.602350000000001
H      47.715300000000006     46.804800000000000     50.397649999999999
H      49.730499999999999     46.015599999999999     46.490450000000010
H      48.601400000000005     45.470100000000002     48.383150000000001
