37

C      50.073849999999993     50.342949999999995     47.788449999999990
C      51.278349999999989     51.022649999999999     47.959550000000007
C      49.345749999999995     48.817350000000005     47.203150000000008
C      48.357949999999988     46.267650000000003     48.316649999999996
C      50.156349999999989     47.594049999999996     47.301050000000004
C      49.843350000000001     46.370049999999992     47.834249999999997
C      51.520149999999987     47.476249999999993     46.590850000000003
C      50.679049999999989     45.211649999999992     47.902050000000003
C      52.120349999999988     46.268349999999998     46.302050000000008
C      51.433250000000001     44.986149999999995     46.773150000000001
C      47.104749999999996     48.909849999999992     50.093550000000008
C      48.401550000000000     46.392049999999998     49.949650000000005
C      46.386449999999996     47.654949999999999     49.868650000000002
C      46.796049999999994     46.233450000000005     49.981750000000005
C      44.959350000000001     47.718549999999993     49.752549999999999
C      46.019849999999991     45.172049999999999     49.997550000000004
C      44.124549999999999     46.521349999999998     49.789950000000005
C      44.627549999999999     45.203850000000003     49.629550000000009
H      46.387850000000000     49.849350000000001     50.355550000000008
H      48.917249999999996     50.632949999999994     47.753150000000005
H      52.312149999999988     50.546049999999994     47.564949999999996
H      51.255249999999990     51.976050000000001     48.286850000000001
H      49.139150000000001     48.988050000000001     46.214050000000000
H      48.467849999999999     48.517849999999996     47.825450000000004
H      47.856549999999999     45.286450000000002     47.841549999999998
H      47.732949999999988     46.949050000000000     47.927450000000007
H      51.973749999999995     48.303349999999995     45.991450000000000
H      50.551649999999995     44.359849999999994     48.464849999999998
H      52.987549999999999     46.132049999999992     45.580150000000003
H      51.851649999999992     44.023949999999999     46.397350000000003
H      48.238349999999997     48.957149999999999     50.155349999999999
H      48.739750000000001     47.342649999999992     50.254050000000007
H      49.039249999999996     45.629649999999998     50.419849999999997
H      44.395649999999989     48.639949999999999     49.775850000000005
H      46.962949999999992     44.245850000000004     50.061450000000008
H      43.012450000000001     46.758849999999995     50.225149999999999
H      43.967449999999999     44.287949999999995     49.407049999999998
