21

C      50.787549999999996     47.161249999999995     45.850549999999998
C      49.643049999999995     48.656149999999990     50.118450000000003
C      49.456849999999996     47.736049999999999     46.380850000000002
C      49.037349999999996     47.446549999999995     49.314150000000005
C      48.312750000000001     48.246449999999989     46.892950000000006
C      47.971150000000002     47.941049999999997     48.372950000000010
C      47.247149999999998     48.993749999999999     46.160350000000001
C      46.641050000000000     47.880050000000004     48.588950000000004
C      45.938749999999992     48.844749999999998     46.616650000000000
C      45.505149999999993     48.022149999999996     47.603850000000001
H      51.494750000000003     47.836550000000010     46.058250000000008
H      50.613449999999993     46.528050000000000     45.004049999999999
H      50.767549999999993     49.014649999999996     49.599950000000000
H      48.629649999999991     49.201250000000002     49.903550000000003
H      48.538850000000004     46.565649999999998     49.815249999999999
H      50.264850000000003     48.448850000000000     50.995950000000001
H      49.922249999999998     46.799549999999996     48.886350000000000
H      47.642450000000004     49.471950000000000     45.253050000000009
H      46.326050000000002     48.215649999999989     49.630450000000003
H      45.339350000000003     49.005850000000002     45.691050000000011
H      44.505249999999997     47.643650000000001     47.741350000000004
