20

C      47.835799999999985     49.797539499999999     47.667349999999999
C      46.919999999999995     50.994079500000005     47.851450000000000
C      47.432499999999997     48.826999500000007     46.732650000000007
C      48.769300000000001     49.204069500000003     48.789349999999999
C      48.043800000000005     47.629659500000002     47.353549999999998
C      49.095699999999994     47.757649500000007     48.419750000000008
C      47.719899999999996     46.240499500000006     47.049549999999996
C      49.617599999999996     46.583439500000004     48.983750000000001
C      48.290300000000002     45.010709500000004     47.456450000000004
C      49.261099999999999     45.249839500000007     48.448449999999994
H      47.387299999999996     51.275139500000002     46.763850000000005
H      46.639599999999994     51.919729499999995     48.554349999999999
H      46.042699999999996     50.601259500000005     47.520750000000007
H      46.537099999999995     48.773419500000003     46.019750000000002
H      48.435400000000001     49.232199500000007     49.925049999999999
H      49.935599999999994     49.877589500000006     48.688249999999996
H      46.725699999999996     46.578899500000006     46.365750000000006
H      49.957300000000004     46.666109500000005     49.980249999999998
H      47.809099999999994     44.080270500000005     47.000550000000004
H      49.669899999999998     44.268689500000008     48.798450000000003
