6

C      48.579099999999997     48.081749999999992     47.817799999999991
C      47.381599999999999     48.158650000000009     48.214100000000002
H      49.412799999999997     47.597250000000003     48.499400000000009
H      48.941200000000002     48.044650000000004     46.690600000000003
H      47.220700000000001     48.182150000000007     49.309399999999997
H      46.587200000000003     48.402749999999997     47.602800000000002
