6

C      48.080749999999995     47.812699999999992     47.297100000000000
C      48.275150000000004     48.188499999999991     48.591099999999997
H      47.296450000000000     48.276399999999995     46.674900000000008
H      48.703550000000000     46.846699999999998     46.896299999999997
H      48.694650000000003     47.705999999999989     49.325099999999992
H      47.697250000000004     49.153300000000002     48.687300000000008
