55

C      46.363114999999993     52.016999999999996     50.610249999999994
C      47.612175000000008     51.287199999999999     49.972850000000001
C      50.187134999999998     46.106099999999998     48.165450000000000
C      47.551175000000001     50.200599999999994     47.027449999999995
C      49.034835000000001     46.675699999999992     47.470450000000000
C      47.841725000000011     48.920900000000003     46.798150000000000
C      51.073035000000004     46.980699999999999     48.704249999999995
C      48.522835000000001     50.829400000000007     47.931549999999994
C      51.552935000000005     49.419699999999992     49.808149999999998
C      50.683135000000007     50.484600000000000     49.632449999999999
C      48.947535000000002     48.193100000000001     47.392749999999999
C      51.125235000000004     48.408100000000005     48.716850000000001
C      49.791735000000003     50.351200000000006     48.421949999999995
C      49.996835000000004     48.985799999999998     47.992849999999997
C      49.102335000000011     44.230900000000005     47.591949999999997
C      47.913685000000001     44.629400000000004     46.901249999999997
C      47.894615000000002     46.145399999999995     46.775050000000000
C      47.161434999999997     46.934699999999992     45.757349999999995
C      52.211535000000012     46.035899999999998     49.182350000000000
C      48.042415000000005     52.064300000000003     48.645150000000001
C      43.783805000000001     47.940100000000001     47.317249999999994
C      45.717385000000007     46.751599999999996     50.252449999999996
C      44.518055000000004     46.926100000000005     48.251549999999995
C      44.787965000000000     47.228600000000000     49.655449999999995
C      45.091935000000007     45.936800000000005     47.373649999999998
C      44.146834999999996     48.361599999999996     50.410449999999997
C      45.370684999999995     44.662899999999993     46.779149999999994
C      46.669395000000009     44.043300000000002     46.632749999999994
H      46.703564999999998     53.214600000000004     50.248950000000001
H      46.165395000000004     51.763800000000003     51.733550000000001
H      45.433675000000008     51.643299999999996     50.118350000000000
H      47.404965000000004     50.254899999999992     49.790349999999997
H      48.554335000000009     51.326899999999995     50.733049999999999
H      46.851905000000002     50.851799999999997     46.492249999999999
H      52.141734999999997     49.259000000000000     50.628650000000000
H      50.570535000000007     51.349299999999999     50.400849999999998
H      51.427535000000006     45.440100000000001     49.851149999999997
H      46.406014999999996     43.060400000000001     46.250349999999997
H      45.989325000000008     47.012199999999993     44.266449999999999
H      48.899934999999999     52.589900000000000     48.479050000000001
H      47.142465000000001     52.241100000000003     48.123950000000001
H      43.214065000000005     48.648799999999994     49.937249999999999
H      43.162205000000000     47.225799999999992     46.603649999999995
H      43.016864999999996     48.477400000000003     47.870449999999998
H      45.967645000000005     45.745099999999994     50.385149999999996
H      44.497945000000001     48.400199999999998     46.646749999999997
H      44.543135000000007     44.130399999999995     46.255150000000000
H      44.754414999999995     48.282200000000003     51.269950000000001
H      50.026634999999999     42.785399999999996     48.018149999999999
H      44.828275000000005     49.469899999999996     50.375850000000000
N      50.099935000000002     44.831900000000005     48.295049999999996
N      47.127105000000000     48.156899999999993     45.880949999999999
O      52.983135000000004     45.320700000000002     48.637650000000001
O      49.058335000000000     42.915400000000005     47.567850000000000
O      46.415355000000005     46.230099999999993     44.813549999999999
