6

C      47.677699999999994     47.925459999999994     48.741694999999986
C      48.047100000000000     48.120220000000003     47.331774999999993
H      47.765500000000003     46.897370000000002     49.322244999999995
H      47.587400000000002     48.804409999999997     49.377295000000004
H      48.397800000000004     49.102629999999998     46.943554999999996
H      48.412599999999998     47.271639999999998     46.622704999999996
