53

C      47.190294499999986     45.590414999999993     47.511149999999994
C      47.718274499999993     46.743025000000010     48.327739999999999
C      47.651484499999995     53.738475000000001     44.535759999999996
C      46.354304499999998     46.025494999999999     46.514069999999997
C      47.347134499999996     52.794474999999998     43.500509999999998
C      48.272344499999996     53.095675000000000     45.694119999999998
C      47.784634499999996     48.072615000000006     47.729929999999996
C      46.559944499999993     50.429774999999999     43.582780000000000
C      45.903456499999997     48.046365000000002     44.690739999999998
C      48.237014500000001     50.554974999999992     46.252009999999999
C      47.458774499999990     51.510975000000002     44.014749999999999
C      48.187484499999997     51.739474999999999     45.317419999999998
C      46.138022499999998     47.448815000000003     45.918369999999996
C      46.547674499999999     49.336575000000003     44.531259999999996
C      46.979224499999994     48.355955000000002     46.648980000000002
C      47.317974499999998     49.489775000000002     45.743299999999998
C      48.659834500000002     49.019975000000009     48.315159999999999
C      48.825414499999994     50.357775000000004     47.645569999999999
C      47.588414499999999     44.259925000000003     48.102689999999996
C      48.444584499999991     44.075265000000002     49.170549999999992
C      48.802494499999995     45.211365000000001     49.866900000000001
C      48.742484499999989     46.525555000000004     49.408259999999999
C      49.736934499999997     47.526485000000001     49.875999999999998
C      49.702214499999997     48.826174999999999     49.393079999999998
C      49.470474499999995     44.992785000000005     51.208399999999997
C      48.786724499999991     44.158255000000004     52.175300000000007
C      47.904574499999995     44.951445000000000     53.396299999999997
C      46.340534499999997     53.191274999999997     42.396121999999998
C      46.507534499999998     43.201275000000003     47.613309999999998
H      45.990061499999996     45.341065000000000     45.756619999999998
H      49.058214499999991     53.446975000000002     46.441780000000001
H      45.564365499999994     50.545375000000000     42.931284999999995
H      45.417896499999998     47.547424999999997     43.896160000000002
H      50.026474499999992     47.392915000000002     50.865859999999998
H      50.619904500000004     49.433874999999993     49.622270000000000
H      47.979574499999998     43.895645000000002     51.316119999999998
H      49.624924500000006     43.158005000000003     52.355199999999996
H      47.007844499999997     45.350445000000001     53.108300000000000
H      48.507904499999995     45.759485000000005     53.596499999999999
H      48.358444499999997     44.588135000000001     54.362600000000000
H      45.380095499999996     53.048175000000001     42.833574999999996
H      46.337284499999996     52.443175000000004     41.637400000000000
H      46.876704499999995     54.295375000000000     41.981900000000010
H      45.786138499999993     43.077955000000003     48.526370000000000
H      45.932698499999994     43.502515000000002     46.669080000000001
H      47.626874500000000     54.934374999999996     44.528469999999999
H      47.999254499999992     41.731905000000005     48.278889999999997
H      49.247824499999993     42.340335000000003     48.731600000000000
H      46.777284499999993     41.065625000000004     47.322499999999998
N      47.313264499999995     41.958575000000003     47.377040000000001
O      50.574284499999997     45.362555000000000     51.462949999999992
O      49.004914499999998     42.923684999999999     49.540399999999991
O      49.204754499999993     51.293275000000001     48.221800000000002
