18

C      46.786099999999990     48.725099999999998     46.395549999999993
C      45.756500000000003     47.270600000000002     48.648550000000000
C      47.744900000000001     48.017200000000003     47.341549999999998
C      47.259900000000002     47.417699999999996     48.501149999999996
C      49.120600000000010     48.137600000000006     47.337350000000001
C      48.154700000000005     47.129000000000005     49.639049999999997
C      49.920000000000002     48.071600000000004     48.480350000000001
C      49.499400000000009     47.491000000000000     49.730750000000000
H      45.836500000000001     48.274100000000004     46.088349999999998
H      47.202399999999997     48.667500000000004     45.334750000000000
H      45.073599999999999     48.155600000000007     48.376549999999995
H      45.359800000000007     47.148799999999994     49.913550000000001
H      49.591700000000003     48.336600000000004     46.361049999999999
H      47.653400000000005     46.685199999999995     50.665250000000000
H      50.926400000000001     48.345900000000000     48.683149999999998
H      50.175700000000006     47.316599999999994     50.588250000000002
H      46.633600000000001     49.691400000000002     46.944450000000003
H      45.593100000000007     46.308599999999998     48.602149999999995
