6

C      48.091099999999997     47.400499999999994     48.220699999999987
C      48.200099999999999     48.608700000000006     48.090999999999994
H      47.137499999999996     46.856600000000000     48.396699999999996
H      48.862500000000004     46.776699999999998     47.638899999999992
H      47.948200000000007     49.181500000000007     47.141700000000000
H      48.693300000000001     49.223300000000002     48.858300000000000
