16

C      49.467799999999997     49.487649999999995     46.921349999999997
C      47.056700000000006     50.194750000000006     48.483450000000005
C      48.860100000000003     48.530050000000003     47.792649999999995
C      47.593299999999999     48.849850000000004     48.468850000000003
C      49.161900000000003     47.047150000000002     47.732550000000003
C      46.952500000000001     47.816750000000006     49.219149999999999
C      48.219800000000006     46.137150000000005     48.255949999999999
C      47.157899999999998     46.471450000000004     49.033249999999995
H      45.903599999999997     50.283550000000005     48.873750000000001
H      50.096400000000003     49.007750000000001     46.016750000000002
H      49.082599999999999     50.416349999999994     46.855549999999994
H      47.704700000000003     51.047049999999999     48.487150000000000
H      49.983500000000006     46.953450000000004     47.027749999999997
H      46.229200000000006     48.022550000000003     49.983249999999998
H      48.609999999999999     44.952950000000001     48.190849999999998
H      46.443100000000001     45.742350000000002     49.653149999999997
