57

C      48.363199999999992     45.961349999999996     47.745649999999998
C      47.012299999999996     45.932149999999993     47.313050000000004
C      49.284700000000001     50.523149999999987     45.817650000000008
C      47.842500000000001     50.435549999999992     45.435250000000003
C      49.354100000000003     47.123249999999999     47.630850000000002
C      46.516599999999997     47.082250000000002     46.640750000000004
C      49.676199999999994     49.348349999999996     46.524950000000004
C      47.016700000000000     49.254750000000001     45.219150000000006
C      48.812600000000003     48.212649999999996     46.612550000000006
C      47.500200000000007     48.141149999999996     46.070250000000009
C      48.790800000000004     44.837850000000003     48.593250000000005
C      48.235100000000003     43.494850000000000     48.696450000000006
C      46.973799999999997     43.455150000000003     47.943150000000010
C      46.269700000000000     44.637149999999991     47.486550000000008
C      50.147700000000000     51.580449999999999     45.295250000000003
C      49.454200000000000     52.499849999999995     44.514250000000004
C      48.076000000000008     52.736149999999995     44.211550000000003
C      47.369200000000006     51.710549999999998     44.968850000000003
C      49.852000000000004     45.149649999999994     49.513450000000006
C      50.085200000000015     44.278949999999995     50.623849999999997
C      49.435400000000001     43.016850000000005     50.655050000000003
C      48.246200000000002     42.699249999999992     49.842450000000007
C      50.395300000000006     46.510249999999999     49.687150000000010
C      50.276400000000010     47.435050000000004     48.605150000000002
C      50.989100000000008     48.877949999999984     48.679650000000002
C      51.050800000000010     49.404049999999998     47.210050000000003
C      45.273200000000003     47.475250000000003     46.269250000000007
C      44.368000000000009     46.229849999999985     46.353650000000009
C      45.098500000000001     44.743049999999997     46.560650000000003
C      45.665400000000005     49.338650000000001     44.707350000000005
C      46.030600000000007     52.135449999999992     45.444950000000006
C      51.404100000000014     46.639449999999997     50.774850000000008
C      51.382800000000003     45.891850000000005     52.013349999999996
C      44.791600000000003     48.685050000000004     45.502850000000002
H      45.246700000000004     44.036550000000005     45.748950000000008
H      44.105900000000005     46.237349999999992     47.372350000000004
H      46.493099999999998     42.505849999999995     48.265350000000005
H      51.237300000000005     51.779149999999987     45.428850000000004
H      50.021100000000004     53.480350000000001     44.341450000000009
H      49.808499999999995     42.313050000000004     51.437150000000003
H      47.614900000000006     41.756150000000005     49.948050000000016
H      50.333000000000013     49.284649999999999     49.473950000000009
H      51.990900000000011     49.001249999999985     48.910550000000008
H      51.322800000000001     50.375549999999990     46.806350000000009
H      52.029100000000000     48.976450000000000     46.700950000000006
H      44.294899999999998     44.008449999999996     46.657050000000005
H      43.597200000000001     46.173050000000003     45.591350000000006
H      45.337299999999999     50.216449999999995     44.159550000000003
H      45.829099999999997     53.048749999999998     45.191250000000004
H      45.379300000000001     51.503749999999997     45.965750000000007
H      52.402799999999999     45.642949999999999     52.327650000000013
H      50.665900000000008     46.283849999999987     52.729949999999995
H      48.482900000000001     54.243849999999995     43.270050000000005
H      43.917500000000004     48.835449999999994     46.011250000000004
O      52.141999999999996     47.592950000000002     50.847750000000005
O      50.731100000000012     44.471549999999993     51.665349999999997
O      47.644599999999997     53.801749999999984     43.485250000000008
