67

C      49.115649999999995     50.316799999999986     47.325449999999996
C      48.534649999999999     49.760799999999996     48.594250000000002
C      48.398949999999999     45.751700000000007     45.160350000000001
C      49.461149999999989     49.380599999999994     46.327150000000003
C      48.075749999999999     48.442900000000002     48.399950000000004
C      49.180549999999997     46.934199999999997     45.159550000000003
C      48.903349999999996     48.036200000000001     46.124450000000003
C      48.190449999999998     47.561399999999999     47.256349999999998
C      49.532849999999996     51.713000000000001     46.976350000000004
C      48.979649999999999     52.606800000000000     47.958849999999998
C      48.604750000000003     52.149499999999996     49.302550000000004
C      48.229050000000001     50.787200000000006     49.633550000000000
C      49.713850000000008     52.320699999999995     45.669350000000001
C      49.542450000000002     53.728699999999996     45.382050000000000
C      49.102649999999997     54.487500000000004     46.449249999999999
C      48.922449999999998     53.899400000000007     47.637549999999990
C      49.792749999999998     49.889800000000001     44.927650000000000
C      50.529250000000005     51.272700000000007     44.861249999999998
C      47.735549999999996     47.722699999999996     49.779450000000011
C      46.259250000000002     50.297100000000007     50.915850000000006
C      47.825049999999997     50.232199999999999     51.013949999999994
C      48.600949999999997     47.414700000000003     50.719749999999991
C      48.471849999999996     53.399499999999996     49.979150000000004
C      50.385849999999991     46.542700000000004     44.269250000000000
C      48.621350000000000     54.709600000000002     49.189750000000004
C      47.978850000000001     42.481900000000003     46.709949999999999
C      48.276350000000001     43.454100000000004     45.578850000000003
C      46.914949999999997     42.960600000000007     47.472850000000008
C      46.583750000000002     41.514500000000005     49.673050000000003
C      46.981949999999998     42.714599999999997     49.003349999999998
C      47.216650000000001     41.096799999999995     50.752450000000003
C      47.540050000000001     43.806599999999996     49.866550000000004
C      47.970250000000000     42.138399999999997     51.497550000000004
C      48.044249999999998     43.487400000000001     51.111649999999997
H      48.348250000000000     46.339499999999994     47.239150000000002
H      49.443750000000001     53.890899999999995     44.192750000000004
H      48.966549999999998     50.093700000000005     44.333950000000002
H      50.438649999999996     49.009899999999995     44.620950000000001
H      51.542349999999999     51.333199999999998     45.450450000000004
H      50.781950000000002     51.707299999999996     43.816850000000002
H      46.764049999999997     47.395900000000005     49.815150000000003
H      45.901849999999996     51.425400000000003     51.037049999999994
H      46.021050000000002     50.319899999999997     49.719250000000002
H      48.586550000000003     50.152499999999996     51.627250000000004
H      47.712249999999997     55.903799999999997     46.720450000000000
H      48.353549999999998     46.656600000000005     51.522849999999998
H      49.796950000000002     47.829299999999996     50.567650000000000
H      49.284649999999999     55.628200000000000     49.625649999999993
H      47.895049999999998     53.510100000000001     50.920050000000003
H      51.140650000000008     47.106800000000000     44.848350000000003
H      50.844349999999991     45.540900000000001     44.250850000000000
H      47.798249999999996     55.376399999999997     49.246450000000010
H      47.879150000000003     49.042999999999999     50.879950000000008
H      49.864549999999994     46.871800000000000     43.375250000000001
H      49.261949999999999     43.706799999999994     45.514550000000000
H      48.004950000000001     42.910400000000003     44.778950000000002
H      48.578350000000000     41.984299999999998     47.507849999999991
H      46.414850000000001     43.773999999999994     46.943150000000003
H      47.192749999999997     40.096200000000003     51.004249999999999
H      47.473349999999996     44.952900000000007     49.669550000000001
H      48.305450000000000     42.269799999999996     52.624749999999999
H      48.770949999999999     43.898900000000005     52.078949999999999
H      45.518250000000002     49.628700000000002     51.463749999999997
H      44.457650000000001     42.266799999999996     48.596049999999998
N      47.673650000000002     44.798700000000004     45.166249999999998
O      48.556049999999999     55.748200000000004     46.271549999999998
S      44.689149999999998     41.005000000000003     49.166150000000002
