5

C      47.779584999999997     47.505849999999988     48.169499999999992
H      49.024304999999998     47.571950000000001     48.405400000000000
H      47.479275000000001     47.330449999999999     47.027400000000000
H      48.323354999999992     48.669849999999997     48.037599999999998
H      46.975695000000002     47.330150000000003     48.972600000000000
