6

C      48.335599999999999     48.911799999999992     47.750254999999996
C      47.695000000000000     47.633899999999997     47.742244999999997
H      49.379600000000003     48.938800000000001     47.182895000000002
H      48.318000000000005     49.368499999999997     48.817104999999998
H      46.620399999999997     47.553700000000006     47.794394999999994
H      48.062199999999997     46.631500000000003     47.235484999999997
