18

C      47.358999999999988     46.073499999999996     48.809349999999995
C      48.023600000000002     46.976100000000010     46.281850000000006
C      48.135800000000003     47.382200000000005     48.637650000000008
C      48.205299999999994     48.032600000000009     47.405650000000009
C      49.008099999999999     47.787600000000005     49.781350000000003
C      48.452200000000005     49.431100000000008     47.126249999999999
C      48.850799999999992     49.175300000000000     49.732849999999999
C      49.010599999999997     49.791000000000004     48.441850000000002
H      48.703699999999998     46.933300000000010     45.394350000000003
H      48.214100000000002     45.272900000000000     48.745249999999999
H      47.007599999999996     46.148600000000009     49.937849999999997
H      47.767200000000003     45.811399999999999     46.905349999999999
H      49.432199999999995     47.162800000000011     50.605649999999997
H      48.906899999999993     49.932300000000005     46.275149999999996
H      49.733000000000004     49.927200000000006     50.175449999999998
H      49.628199999999993     50.727100000000000     48.783150000000006
H      46.266999999999996     46.282400000000003     48.177450000000007
H      47.175399999999996     47.627299999999998     45.907750000000007
