20

C      49.313449999999996     50.350944999999996     47.798899999999996
C      49.911850000000001     49.117345000000000     47.086500000000001
C      48.141150000000010     50.042245000000001     48.553200000000004
C      49.294950000000000     47.545745000000004     47.422399999999996
C      47.250750000000011     48.858845000000002     48.388400000000004
C      47.844650000000001     47.765845000000006     47.606999999999999
C      46.286450000000002     48.254345000000001     49.200400000000002
C      47.166650000000004     46.526715000000003     47.139200000000002
C      45.722050000000010     46.967895000000006     49.073899999999995
C      46.132450000000006     46.139035000000000     47.946100000000001
H      50.342350000000010     50.883344999999998     47.891199999999998
H      50.130750000000006     49.465245000000003     45.978899999999996
H      51.086849999999998     49.108145000000000     46.912000000000006
H      47.941950000000006     50.437445000000004     49.585300000000004
H      49.830449999999999     46.998995000000001     46.773200000000003
H      49.654049999999998     47.212125000000000     48.347099999999998
H      46.132050000000007     49.106245000000001     50.021100000000004
H      47.717250000000007     46.316915000000002     46.263599999999997
H      44.913150000000002     46.780835000000003     49.868600000000001
H      45.494950000000003     45.116655000000002     47.747799999999998
