5

C      48.400939999999991     48.307899999999997     48.046544999999995
H      48.208810000000000     47.097300000000004     48.324314999999999
H      47.344600000000000     48.902699999999996     48.097384999999989
H      48.527610000000003     48.823599999999999     46.959954999999994
H      48.655400000000000     48.796999999999997     49.040045000000006
