67

C      48.298279999999991     47.490249999999989     50.535049999999984
C      47.506380000000000     47.163549999999994     53.351450000000000
C      48.926679999999998     48.356050000000003     51.524450000000002
C      48.498280000000001     47.837650000000004     52.836849999999998
C      49.660779999999995     49.415450000000000     50.966950000000011
C      49.396380000000001     48.606850000000001     53.959650000000011
C      50.330180000000006     50.252749999999999     52.077250000000006
C      50.436780000000006     49.505550000000007     53.279250000000005
C      50.687080000000002     48.486150000000002     46.680750000000003
C      49.852579999999996     49.834449999999997     49.565550000000002
C      51.618580000000001     48.521949999999997     47.897450000000006
C      51.046180000000000     48.867049999999999     49.143050000000002
C      52.689680000000003     47.626849999999997     47.777450000000002
C      51.664579999999994     47.986650000000004     50.045550000000006
C      53.117880000000007     46.568149999999996     48.683650000000000
C      52.794980000000002     47.089949999999995     49.991250000000008
C      49.518279999999997     47.451649999999994     46.493250000000003
C      47.408980000000000     48.374150000000007     44.165549999999996
C      49.563880000000005     47.263749999999995     44.946250000000006
C      48.991980000000005     48.135550000000002     44.016249999999999
C      50.228180000000002     46.228550000000006     44.336849999999998
C      49.187180000000005     48.137949999999996     42.527649999999994
C      49.899279999999997     45.820450000000001     42.987150000000000
C      49.542279999999998     46.779649999999997     42.081150000000008
C      47.354579999999999     46.832050000000002     47.968950000000007
C      47.224679999999999     48.700849999999996     50.415950000000009
C      46.752680000000005     46.112150000000007     49.041350000000008
C      45.802979999999998     48.172850000000004     50.130850000000009
C      45.578479999999999     46.838150000000006     49.657650000000004
C      44.821980000000003     49.098250000000000     50.511949999999999
C      44.300680000000000     46.437249999999999     49.494950000000003
C      43.457780000000000     48.477349999999994     50.477950000000007
C      43.102280000000000     47.189450000000001     50.026550000000000
H      48.963879999999996     48.847749999999998     54.981150000000000
H      46.646279999999997     46.638250000000006     52.697250000000011
H      47.923380000000002     46.720549999999996     51.319650000000010
H      48.519280000000002     47.253850000000007     49.391249999999999
H      47.514180000000003     47.186850000000000     54.519950000000009
H      50.183680000000003     49.346049999999998     46.625950000000003
H      50.115180000000002     47.864049999999999     54.077449999999999
H      50.956080000000000     51.157450000000004     52.032450000000011
H      51.246580000000002     50.044850000000004     53.799250000000001
H      50.558280000000003     50.757150000000003     49.628850000000000
H      51.196779999999997     48.397250000000007     45.654049999999998
H      49.072279999999999     49.555150000000005     48.931650000000005
H      53.156280000000002     47.358550000000001     46.798850000000002
H      51.167880000000004     47.974449999999997     51.119750000000010
H      53.873179999999998     45.741049999999994     48.398550000000000
H      53.232679999999995     46.427749999999996     50.787850000000006
H      46.874879999999997     48.457749999999997     43.152550000000005
H      49.951379999999993     46.565750000000001     46.925250000000005
H      47.186680000000003     49.493450000000003     44.118150000000000
H      46.936079999999997     47.462349999999994     44.706850000000003
H      51.135080000000009     45.973350000000003     45.180250000000001
H      49.005180000000003     49.174249999999994     41.988749999999996
H      49.865879999999997     44.842549999999996     42.716949999999997
H      49.558579999999999     46.606050000000003     41.018850000000000
H      48.671480000000003     48.150250000000007     46.924350000000004
H      47.158480000000004     47.957050000000002     47.546250000000001
H      48.266579999999998     46.254950000000001     47.642150000000001
H      47.567779999999999     49.430550000000004     49.806350000000009
H      47.279380000000003     49.270350000000001     51.301550000000006
H      46.849380000000004     44.986650000000004     48.931750000000008
H      45.019379999999998     50.122549999999997     50.965450000000004
H      44.186480000000003     45.488149999999997     48.682450000000003
H      42.673380000000002     48.939450000000001     51.269649999999999
H      42.126820000000002     46.647550000000003     50.574750000000009
