18

C      49.236349999999995     50.532749999999993     46.371449999999989
C      49.868650000000002     48.574949999999994     47.922650000000004
C      48.599350000000001     47.795949999999998     48.114349999999988
C      48.742849999999997     46.399049999999995     48.262149999999991
C      47.322450000000003     48.176150000000000     48.611050000000006
C      47.865549999999999     45.644550000000002     49.091049999999996
C      46.326850000000000     47.387250000000002     48.960849999999994
C      46.777250000000002     46.086649999999999     49.530149999999999
H      49.599450000000004     45.856550000000006     48.281250000000000
H      49.601149999999990     51.503149999999998     45.763249999999999
H      48.177950000000003     50.161350000000006     46.375150000000005
H      50.791449999999998     47.815350000000002     47.707049999999995
H      50.233449999999998     48.698450000000001     48.891149999999996
H      47.087650000000004     49.332950000000004     48.206049999999998
H      48.129750000000001     44.496850000000002     48.863849999999999
H      45.208550000000002     47.459550000000000     49.242249999999999
H      46.248249999999999     45.603349999999999     50.236750000000001
N      50.150649999999999     49.776950000000006     46.974149999999995
