18

C      48.903849999999998     46.282449999999997     50.311899999999994
C      46.779150000000001     49.256749999999997     48.094500000000004
C      47.872950000000003     47.158549999999991     49.705899999999993
C      47.819749999999999     48.734750000000005     47.667300000000004
C      48.433949999999996     47.570949999999996     48.442599999999992
C      48.253550000000004     49.300150000000002     46.554099999999998
C      49.137150000000005     46.724449999999990     47.542399999999994
C      49.277150000000006     48.319450000000003     45.801499999999997
C      49.539150000000006     47.042150000000007     46.276800000000001
H      48.275250000000000     45.904350000000008     51.066200000000002
H      49.859849999999994     46.573750000000004     50.627299999999998
H      46.746849999999995     49.733850000000004     49.099600000000002
H      45.923349999999999     48.638049999999993     48.209699999999991
H      46.968450000000004     47.224950000000007     50.293900000000001
H      47.908850000000001     50.175349999999995     46.087499999999999
H      49.780450000000002     45.824650000000005     47.956499999999998
H      49.700549999999993     48.623550000000009     44.933799999999998
H      50.076650000000001     46.220650000000006     45.870600000000003
