23

C      46.593649999999997     48.560800000000000     50.183649999999986
C      45.239590000000000     48.315300000000008     50.597550000000005
C      45.569499999999998     47.958200000000005     47.295650000000002
C      47.449450000000006     47.519000000000005     49.721950000000000
C      46.800050000000006     47.890100000000004     47.214350000000003
C      47.835150000000006     47.521200000000007     48.295750000000005
C      47.392450000000004     47.674999999999997     46.019550000000002
C      49.262350000000005     47.704999999999998     48.104250000000000
C      48.742650000000005     48.013100000000009     45.883050000000004
C      49.854950000000002     47.760400000000004     46.742749999999994
C      50.226949999999995     47.761099999999999     49.304449999999996
H      47.105049999999999     49.580699999999993     49.445050000000002
H      44.934450000000005     47.251900000000006     50.590749999999993
H      45.057740000000003     49.239400000000003     51.117449999999998
H      44.950610000000005     48.149200000000008     46.478349999999999
H      45.131620000000005     48.593500000000006     48.005950000000006
H      47.449049999999993     46.419300000000007     49.912249999999993
H      49.046950000000002     48.163100000000000     44.882550000000002
H      50.970150000000011     47.748100000000008     46.252749999999999
H      46.956550000000000     47.960700000000003     44.948550000000004
H      49.426050000000004     47.933599999999998     50.238949999999996
H      51.065549999999995     48.590199999999996     49.216950000000004
H      50.655250000000002     46.572200000000009     49.590150000000001
