6

C      47.888049999999993     47.931099999999994     47.463749999999997
C      48.137249999999995     47.992699999999999     48.700550000000007
H      48.774150000000006     48.354300000000002     46.580950000000001
H      46.867549999999994     47.645699999999998     47.006250000000009
H      47.410849999999996     48.067999999999998     49.419049999999999
H      49.132450000000006     48.157299999999992     48.810450000000003
