34

C      48.390599999999992     48.856344999999990     46.441399999999994
C      49.158000000000001     50.091874999999995     46.716799999999999
C      48.174700000000001     51.152534999999993     46.943799999999996
C      47.073300000000003     50.965814999999992     45.995400000000004
C      46.477400000000003     49.845664999999990     46.011900000000004
C      48.625799999999998     52.478764999999996     47.501199999999997
C      49.215900000000005     47.737414999999991     45.899100000000004
C      50.545400000000001     50.515804999999993     46.529900000000012
C      50.390199999999993     47.380704999999992     50.126300000000001
C      50.034099999999995     47.243364999999990     47.250200000000007
C      50.050600000000003     46.331964999999997     49.564500000000010
C      49.444199999999995     46.205474999999993     48.137100000000004
C      50.089699999999993     45.183458999999992     50.249200000000002
C      48.949599999999990     44.969051999999991     47.831900000000005
C      49.201999999999998     44.092704999999988     50.052400000000006
C      49.145700000000005     43.768004999999995     48.570999999999998
H      46.414800000000000     51.984804999999994     45.852200000000003
H      44.573999999999998     49.173954999999999     46.127000000000002
H      48.605299999999986     46.893454999999996     45.626400000000004
H      49.833600000000004     47.813704999999992     44.985399999999998
H      50.664699999999996     51.669164999999985     46.238100000000003
H      51.364499999999992     49.772094999999986     46.336800000000004
H      49.552899999999994     47.738304999999997     50.643100000000004
H      51.426000000000002     47.637314999999994     50.597999999999999
H      50.894099999999995     47.031004999999993     46.652299999999997
H      50.551500000000004     48.066304999999993     47.853300000000004
H      50.790800000000004     44.893516699999992     51.014600000000002
H      49.183800000000005     44.468305000000008     46.859200000000001
H      48.955699999999993     43.542704999999977     50.916800000000009
H      48.641000000000005     42.907805000000003     48.360900000000001
H      47.943200000000004     53.092194999999997     48.077500000000001
H      49.634199999999993     52.643735000000000     47.790099999999995
N      47.137599999999992     48.720414999999996     46.242000000000004
O      45.050699999999992     49.821534999999990     45.727400000000003
