119

C      52.589449999999999     47.597249999999995     47.845399999999991
C      53.146750000000004     46.533349999999999     47.162599999999998
C      47.674530000000004     45.854950000000002     47.739800000000002
C      48.424240000000005     44.614249999999998     47.706900000000005
C      51.002750000000006     47.653450000000007     48.125900000000001
C      52.184340000000006     45.462849999999996     46.876000000000005
C      48.569250000000004     46.912149999999997     47.550399999999996
C      49.740770000000005     44.484249999999996     46.994799999999998
C      50.055770000000003     46.744650000000000     47.610200000000006
C      50.717940000000006     45.455950000000001     47.203500000000005
C      53.213749999999997     48.718449999999990     48.307100000000005
C      54.677950000000003     48.866749999999996     47.787000000000006
C      55.456750000000007     47.807150000000000     47.338800000000006
C      54.580350000000003     46.707149999999999     46.944699999999997
C      46.091040000000007     45.724249999999998     48.003700000000009
C      45.899240000000006     44.487749999999998     48.973500000000001
C      46.604080000000003     43.267049999999998     48.616600000000005
C      47.935540000000003     43.297849999999997     48.213999999999999
C      52.600450000000002     49.766350000000003     49.087000000000003
C      53.514150000000008     50.782349999999994     49.350200000000001
C      54.738149999999997     51.115549999999999     48.768500000000003
C      55.340150000000015     50.068849999999998     47.969800000000006
C      50.490080000000006     48.942549999999997     48.518400000000000
C      51.234500000000004     49.867049999999999     49.202200000000005
C      52.774050000000010     44.742950000000000     45.756399999999999
C      55.819650000000003     44.213250000000002     47.171800000000005
C      55.459250000000004     45.484249999999996     46.645600000000002
C      48.074110000000005     48.266149999999996     47.186999999999998
C      45.595840000000003     47.026249999999997     48.854100000000003
C      50.013530000000010     43.022349999999996     47.120400000000004
C      49.674650000000007     41.748550000000002     49.178100000000001
C      48.871490000000009     42.192250000000001     47.921700000000001
C      45.407740000000004     45.122749999999996     50.145899999999997
C      45.046600000000005     44.271149999999999     51.344999999999999
C      45.116250000000008     42.905450000000002     51.399200000000008
C      45.961140000000007     41.808949999999996     48.549400000000006
C      43.334837000000007     46.952849999999998     46.062200000000004
C      44.240960000000008     46.572150000000001     47.041700000000006
C      44.807700000000004     50.831750000000000     52.465100000000007
C      42.442749999999997     48.010249999999999     46.061599999999999
C      43.911720000000010     51.901449999999997     51.949799999999996
C      44.285310000000003     47.537050000000001     48.332499999999996
C      41.962650000000004     52.428250000000006     50.270300000000006
C      41.855750000000015     52.086550000000003     48.881000000000000
C      41.626049999999999     49.969549999999998     47.521600000000007
C      43.107812000000003     51.596849999999996     50.784800000000004
C      42.388450000000027     48.761949999999999     47.364199999999997
C      42.349650000000018     50.818950000000001     48.461799999999997
C      43.866150000000005     50.483149999999995     50.296599999999998
C      43.509110000000007     48.754750000000001     48.216600000000000
C      43.420998000000004     50.022950000000009     49.025100000000009
C      43.310822000000009     46.105849999999997     44.829300000000003
C      44.103550000000006     44.863250000000001     44.727600000000010
C      45.090200000000003     45.493350000000000     46.762600000000006
C      40.901350000000029     53.297249999999998     50.646100000000004
C      39.989050000000013     53.997550000000004     49.847499999999997
C      40.297550000000022     53.715150000000008     48.432100000000005
C      41.108950000000014     52.831150000000001     47.873699999999999
C      42.276250000000012     46.294649999999997     43.910600000000002
C      42.193549999999995     45.467550000000003     42.660899999999998
C      42.591116000000007     44.184750000000001     42.838499999999996
C      43.697340000000004     43.965949999999999     43.712299999999999
C      41.593650000000011     47.598749999999995     43.772900000000007
C      41.634750000000011     48.374150000000000     44.925600000000003
C      40.971850000000003     53.632850000000005     52.141500000000008
C      43.765460000000004     53.262549999999997     52.418000000000006
C      44.442360000000008     53.774850000000001     53.575600000000009
C      40.556850000000018     52.546949999999995     53.147599999999997
C      42.316250000000018     54.090449999999990     52.373400000000004
H      56.470250000000014     47.847149999999999     46.796800000000005
H      52.795150000000000     51.305850000000007     50.288399999999996
H      56.494250000000008     50.130949999999999     47.588200000000001
H      49.480740000000004     49.110450000000000     48.293800000000005
H      47.422790000000006     48.983550000000001     47.925100000000000
H      50.954280000000004     50.902650000000008     49.587000000000003
H      51.046900000000008     43.069850000000002     47.641400000000004
H      55.359250000000010     43.709350000000001     48.005300000000005
H      56.803950000000007     43.818750000000001     47.012100000000004
H      56.125550000000004     45.343350000000001     45.697500000000005
H      52.141290000000005     44.965249999999997     44.744100000000003
H      47.135460000000009     47.697350000000000     46.754100000000008
H      48.741970000000009     48.787250000000000     46.523899999999998
H      46.270220000000009     47.728850000000001     49.166899999999998
H      45.837050000000005     51.261150000000001     52.755000000000010
H      50.437050000000006     42.618650000000002     46.159400000000005
H      50.023350000000008     40.763449999999999     48.986000000000004
H      48.777360000000009     41.376550000000002     49.876700000000000
H      46.468380000000003     41.377049999999997     47.694800000000001
H      49.933930000000004     42.716749999999998     49.649699999999996
H      44.752410000000005     44.845750000000002     52.074300000000008
H      44.517650000000003     42.555349999999997     52.240800000000007
H      45.279180000000004     42.397149999999996     50.498599999999996
H      45.223990000000008     49.072550000000007     51.232399999999998
H      44.861620000000009     41.568350000000002     48.436099999999996
H      48.630010000000006     41.237850000000002     47.273700000000005
H      46.507730000000002     41.040950000000002     49.320599999999999
H      44.803360000000005     50.119949999999996     53.254800000000003
H      40.862950000000033     50.533049999999989     46.868300000000005
H      39.289950000000019     54.849750000000000     50.119399999999999
H      39.196049999999993     54.296450000000000     48.081900000000005
H      41.187250000000013     52.797349999999994     46.492400000000004
H      41.816350000000007     45.987850000000002     41.710099999999997
H      42.481126900000007     43.305549999999997     42.034100000000009
H      44.226840000000003     43.065249999999999     43.559700000000007
H      41.065450000000020     47.823050000000009     42.725600000000000
H      41.225050000000032     49.232450000000000     44.606200000000001
H      40.180550000000018     54.417949999999990     52.307800000000000
H      45.398620000000008     53.492850000000004     54.106499999999997
H      43.920230000000004     54.603149999999999     54.108300000000000
H      39.458049999999993     52.575550000000000     53.281500000000008
H      40.691250000000004     52.296849999999999     54.289900000000003
H      41.204250000000023     51.740549999999999     52.439099999999996
H      42.603104000000009     55.236550000000001     52.202900000000000
H      42.408050000000017     54.314450000000001     53.416100000000000
H      53.934050000000006     44.971950000000000     45.577500000000001
H      55.124450000000003     51.914349999999999     49.167000000000002
N      44.730080000000008     49.948849999999993     51.250900000000001
N      44.988610000000008     44.617750000000001     45.742400000000004
O      45.179760000000009     46.411450000000002     50.110300000000009
