6

C      48.050699999999992     47.425449999999991     48.356349999999999
C      47.941600000000001     48.426249999999996     47.791849999999997
H      48.800000000000004     47.539950000000005     49.199150000000003
H      47.142000000000003     46.784849999999999     48.496450000000010
H      47.759800000000006     48.389250000000004     46.800849999999997
H      48.857999999999997     49.215150000000001     47.708650000000006
