8

C      48.204749999999990     48.499999999999993     47.440599999999996
C      47.788450000000005     47.467799999999997     48.495100000000008
H      48.184850000000004     49.560400000000001     47.794100000000000
H      49.347850000000001     48.355599999999995     47.441800000000001
H      47.916850000000004     46.439599999999999     48.341800000000006
H      46.652149999999999     47.856899999999996     48.521000000000001
H      48.112950000000005     47.882300000000001     49.623199999999997
H      47.793849999999999     48.171900000000001     46.376800000000003
