54

C      47.648199999999996     46.848594999999982     47.233449999999991
C      48.645699999999991     46.443594999999988     46.209949999999999
C      43.834199999999996     45.845594999999989     44.526750000000000
C      46.255299999999991     46.480394999999987     47.250149999999998
C      48.016700000000000     45.746694999999988     45.101450000000000
C      44.375900000000001     46.339594999999989     45.757950000000001
C      45.820899999999995     46.050394999999995     45.985550000000003
C      46.532200000000003     45.583094999999986     44.915649999999999
C      48.463499999999996     47.120194999999995     48.422350000000002
C      49.947499999999991     47.339794999999995     48.443350000000002
C      50.718400000000003     47.347894999999994     47.170150000000000
C      50.061399999999992     46.615994999999998     46.216050000000003
C      47.506000000000000     47.009194999999991     49.510449999999999
C      48.019099999999995     46.915994999999995     50.896549999999998
C      49.301900000000003     47.518794999999997     51.060650000000003
C      50.199699999999993     47.641994999999994     49.950550000000000
C      46.061199999999999     47.250894999999986     49.544649999999997
C      45.492800000000003     46.927594999999997     48.325150000000001
C      52.233000000000004     47.469894999999994     46.903849999999998
C      52.807999999999993     46.609194999999985     45.929050000000004
C      52.166699999999992     45.700794999999985     45.046849999999999
C      50.806399999999996     45.742094999999992     45.239150000000002
C      48.787700000000001     45.390694999999994     43.974350000000001
C      50.017600000000002     44.803894999999997     44.289549999999998
C      44.152599999999993     47.557894999999988     47.878449999999994
C      43.575099999999992     47.213294999999988     46.660950000000000
C      44.578000000000003     51.105165000000000     47.398149999999994
C      43.368200000000002     48.586020999999988     48.585950000000004
C      43.676199999999994     50.058464999999998     48.267350000000000
C      44.641599999999997     44.955194999999989     43.853650000000002
C      45.267499999999998     48.071460999999999     50.536650000000002
H      42.899100000000004     46.375894999999986     44.157750000000000
H      49.409300000000002     48.104122000000004     51.975149999999992
H      50.791899999999998     48.411394999999999     50.275350000000003
H      42.966399999999993     48.619181999999995     50.842449999999992
H      52.932699999999997     48.123429000000002     47.523450000000004
H      53.778700000000001     46.750294999999994     45.586250000000000
H      48.249200000000002     45.067694999999986     43.302950000000003
H      50.325199999999995     43.818294999999992     43.839350000000003
H      42.482100000000003     47.358594999999994     46.644849999999998
H      45.684500000000000     50.675795000000008     47.711449999999992
H      42.221299999999999     48.261717000000004     48.295849999999994
H      42.963399999999993     50.496274999999997     48.939249999999994
H      48.030000000000001     46.556794999999994     52.742350000000002
H      44.042500000000004     44.271594999999991     43.257649999999998
H      45.340899999999991     47.764094999999998     51.638550000000002
H      45.662099999999995     48.937044999999998     50.879950000000001
H      44.617699999999999     49.833095000000000     48.759950000000003
H      52.791499999999999     44.566694999999996     43.312049999999999
N      45.868899999999996     44.674394999999990     44.083750000000002
O      44.349899999999991     52.181705000000008     46.933950000000003
O      43.533599999999993     48.256541999999996     50.163249999999998
O      53.064300000000003     45.002094999999997     44.145049999999998
O      47.389600000000002     46.540694999999985     52.025349999999996
