17

C      46.857899999999994     47.117999999999995     49.845199999999991
C      49.518000000000001     48.289600000000007     48.440700000000000
C      47.004700000000000     47.602699999999999     48.732399999999998
C      47.983500000000006     48.562899999999999     48.357399999999998
C      46.299100000000003     47.105699999999999     47.555399999999999
C      47.969800000000006     49.466600000000014     47.239300000000000
C      46.384300000000003     47.975600000000014     46.450600000000001
C      47.144400000000005     49.059200000000004     46.184699999999999
H      49.908100000000005     47.136499999999998     48.382600000000004
H      47.898000000000010     46.565200000000004     50.294100000000000
H      46.174900000000008     47.417400000000001     50.626500000000000
H      49.855800000000002     48.924900000000008     49.269999999999996
H      50.267899999999997     48.767400000000009     47.632399999999997
H      45.952500000000008     45.883099999999999     47.469500000000004
H      48.815700000000007     50.116900000000001     47.148099999999999
H      45.732100000000003     47.807300000000012     45.560700000000004
H      46.818300000000008     49.811900000000009     45.373500000000000
