21

C      49.236449999999991     49.747849999999993     47.099499999999992
C      49.424349999999990     49.771749999999997     48.607600000000005
C      49.119450000000001     48.217250000000000     46.694199999999995
C      48.194149999999993     48.852950000000000     49.326599999999999
C      48.194449999999989     47.201949999999997     47.720299999999995
C      47.815550000000002     47.711250000000000     48.972399999999993
C      47.951250000000002     46.116450000000000     46.891199999999998
C      46.776150000000001     46.937750000000001     49.471900000000005
C      46.841449999999995     45.423550000000006     47.497100000000003
C      46.340249999999997     45.760750000000002     48.775999999999996
H      46.472349999999992     45.039450000000002     46.536100000000005
H      50.008349999999993     50.585449999999994     46.450999999999993
H      48.230849999999990     50.337249999999997     46.880700000000004
H      49.501649999999998     50.960549999999998     48.910600000000002
H      50.388249999999999     49.263350000000003     48.657200000000003
H      48.816149999999993     48.076149999999998     45.492999999999995
H      50.118349999999992     47.592449999999999     46.709599999999995
H      47.448449999999994     49.141649999999998     50.507000000000005
H      48.417349999999999     46.068849999999998     45.740200000000002
H      46.034949999999995     47.355450000000005     50.298699999999997
H      45.611750000000001     45.064650000000000     49.246899999999997
