18

C      49.406249999999986     48.322849999999988     46.221499999999992
C      49.842650000000006     47.092649999999999     48.982500000000002
C      48.470950000000002     48.217549999999996     47.407200000000003
C      48.439549999999997     47.666849999999997     48.689999999999998
C      47.164649999999995     48.812449999999991     47.106500000000011
C      47.371549999999999     47.790050000000001     49.675600000000003
C      46.404849999999996     49.285549999999994     48.212200000000010
C      46.554749999999999     48.961549999999995     49.592700000000008
H      49.554749999999999     46.984850000000002     45.656900000000007
H      49.613550000000004     46.283949999999997     49.594400000000007
H      48.934650000000005     49.026649999999997     45.384799999999998
H      50.453050000000005     47.852249999999998     49.596300000000014
H      50.246650000000002     47.218449999999997     47.887600000000006
H      46.903849999999991     49.213649999999994     46.075200000000009
H      47.820250000000001     47.520949999999992     50.615200000000002
H      45.546949999999995     49.716050000000003     47.770700000000005
H      45.785449999999997     49.059850000000004     50.422600000000003
H      50.314150000000012     48.883449999999996     46.494399999999999
