22

C      49.082650000000001     47.450649999999996     50.358349999999987
C      47.717450000000007     48.160250000000005     50.841649999999994
C      49.164949999999997     46.815150000000003     48.979449999999993
C      47.094550000000005     48.930949999999996     49.658949999999997
C      48.438250000000004     47.676849999999988     47.897249999999993
C      47.401950000000006     48.522549999999995     48.161149999999999
C      48.794850000000004     47.402349999999998     46.462550000000000
C      46.592250000000000     49.130250000000004     47.319449999999996
C      48.105250000000005     48.190049999999999     45.462349999999994
C      46.907150000000009     48.868150000000000     45.987649999999995
H      49.499950000000005     47.068049999999999     51.128549999999997
H      50.000750000000004     48.096849999999989     50.391649999999991
H      47.698749999999997     48.992249999999999     51.706650000000003
H      47.029649999999997     47.342950000000002     51.124549999999992
H      50.220549999999996     46.507750000000001     48.474849999999996
H      48.483849999999997     46.058850000000007     49.408049999999996
H      47.621249999999996     49.941149999999993     49.854750000000003
H      46.219850000000001     49.387749999999997     50.215150000000001
H      49.374050000000004     46.714050000000000     46.165050000000001
H      45.779450000000004     49.864549999999994     47.367550000000001
H      47.873750000000008     48.179950000000005     44.293349999999997
H      46.209250000000004     49.461650000000006     45.386850000000003
