21

C      49.005949999999991     46.353149999999985     49.349139999999991
C      49.372850000000000     49.662049999999994     49.394140000000000
C      47.789950000000005     47.274149999999992     49.857540000000007
C      48.400750000000002     49.274550000000005     48.242539999999998
C      47.373350000000002     48.391449999999992     48.869340000000001
C      48.460549999999998     49.887050000000002     47.020620000000001
C      46.388050000000007     47.886250000000004     48.048940000000002
C      47.375349999999997     49.427149999999997     46.181060000000002
C      46.483550000000008     48.438550000000006     46.713820000000005
H      49.068650000000005     46.585350000000005     48.324640000000002
H      48.716449999999995     45.258049999999997     49.305140000000002
H      49.929950000000005     46.620949999999993     49.927640000000004
H      50.419049999999999     49.115849999999995     49.182440000000007
H      48.725549999999998     49.379649999999998     50.338640000000005
H      49.639550000000000     50.741950000000003     49.273440000000001
H      46.946449999999999     46.536149999999992     49.905740000000002
H      47.866650000000007     47.830749999999995     50.784039999999997
H      49.284050000000008     50.278149999999997     46.596679999999999
H      45.580950000000001     47.131950000000003     48.547640000000001
H      47.329949999999997     49.575749999999999     45.215960000000003
H      46.040750000000003     47.762249999999995     45.956409999999998
