6

C      47.827486999999998     47.678539499999985     47.560209999999991
C      47.980408000000011     48.619239499999985     48.638159999999999
H      47.496210000000005     46.578439499999995     47.670040000000000
H      48.287663000000009     48.110439499999991     46.610280000000003
H      48.933110000000006     49.421560500000005     48.750720000000001
H      47.066889999999994     48.341939499999988     49.389719999999997
