16

C      48.851199999999992     49.811349999999997     45.712949999999999
C      47.822000000000003     49.026250000000005     46.249849999999995
C      48.358900000000006     48.449349999999995     48.648949999999999
C      47.832900000000009     48.040450000000007     47.408950000000004
C      47.859999999999999     47.795850000000002     49.832449999999994
C      46.911400000000000     46.963750000000005     47.184950000000001
C      47.397700000000000     46.415649999999999     49.496250000000003
C      46.723300000000009     46.020349999999993     48.190250000000006
H      48.887900000000002     49.468450000000004     48.667649999999995
H      49.962900000000005     49.458650000000006     45.446150000000003
H      48.774900000000002     50.739149999999995     45.112250000000003
H      46.757800000000003     48.876450000000006     45.825950000000006
H      47.945999999999998     48.184849999999997     50.887749999999997
H      46.479900000000001     47.123350000000002     46.111450000000005
H      47.171500000000009     45.849850000000004     50.309750000000008
H      46.037099999999995     45.260850000000005     48.042050000000003
