6

C      47.817349999999990     47.813199999999995     47.469849999999994
C      48.472849999999994     48.564000000000000     48.525849999999991
H      46.835849999999994     48.366100000000003     47.103749999999991
H      47.961650000000006     46.679499999999997     46.988349999999997
H      49.164150000000006     47.894500000000001     48.978749999999991
H      47.954750000000004     49.320500000000003     49.011650000000003
