5

C      47.892149999999994     48.401749999999986     47.833599999999990
H      49.008150000000001     48.693150000000003     47.826500000000003
H      47.241050000000001     48.605850000000004     48.719500000000004
H      46.991849999999999     48.352749999999993     47.280499999999996
H      47.928850000000004     47.306849999999997     47.654299999999999
