18

C      46.232949999999988     49.660499999999985     47.692549999999997
C      49.364049999999999     49.801000000000002     47.791350000000001
C      47.014350000000000     48.369999999999990     48.185850000000009
C      48.526949999999992     48.581499999999991     48.067550000000004
C      46.532449999999990     47.201999999999998     48.682949999999998
C      49.300350000000002     47.423000000000002     48.111550000000001
C      47.430549999999997     46.059100000000001     48.942950000000003
C      48.825949999999999     46.191699999999997     48.743150000000007
H      45.713749999999997     49.516099999999994     46.668450000000000
H      45.569649999999996     50.056899999999999     48.476550000000010
H      47.079050000000002     50.319000000000003     47.668750000000010
H      49.884250000000002     49.471899999999991     46.909750000000010
H      49.159950000000002     50.978000000000009     47.799450000000000
H      45.508749999999999     47.365200000000002     48.921350000000011
H      50.491250000000001     47.513700000000000     47.958250000000000
H      47.041350000000001     45.021999999999991     49.331550000000000
H      49.728349999999999     45.424499999999995     49.067250000000008
H      50.033249999999988     49.699199999999990     48.751750000000008
