6

C      47.243574999999993     47.418299999999995     47.592049999999993
C      48.290894999999999     47.903500000000008     48.464849999999998
H      47.592364999999994     47.132800000000003     46.554649999999995
H      46.482745000000001     46.958200000000005     48.320450000000008
H      49.517254999999999     49.041799999999995     48.596950000000007
H      48.759565000000002     47.843599999999995     49.445350000000005
