6

C      48.265449999999987     47.423199999999994     47.919899999999998
C      47.922249999999998     48.660400000000003     48.178199999999990
H      49.102150000000002     46.866199999999999     47.495800000000003
H      47.564749999999997     46.504700000000000     48.281099999999995
H      48.780449999999995     49.495300000000000     47.924499999999995
H      46.897849999999998     49.138199999999998     48.504199999999997
