5

C      47.808949999999996     47.904749999999993     48.369249999999994
H      48.949950000000001     48.051649999999995     48.671050000000001
H      47.899149999999999     48.353549999999998     47.198850000000000
H      47.050049999999999     47.064449999999994     48.386149999999994
H      47.323349999999998     48.935550000000006     48.801150000000000
