5

C      48.054449999999989     48.523969999999991     48.369899999999994
C      48.283750000000005     48.049860000000002     47.203000000000003
H      47.797249999999998     47.079479999999997     47.126900000000006
H      48.083050000000007     48.920520000000003     46.509799999999998
O      47.716249999999995     48.839689999999997     49.490200000000002
