6

C      48.396399999999993     47.579599999999992     47.708999999999989
C      47.605600000000003     48.421199999999999     48.382199999999990
H      49.400700000000001     48.067200000000000     47.485999999999997
H      48.306699999999999     46.521699999999996     47.963999999999992
H      47.872599999999998     49.478300000000004     47.972199999999994
H      46.599299999999999     48.048400000000001     48.514000000000003
