6

C      48.005549999999992     48.397049999999993     48.441949999999991
C      47.825450000000004     47.938450000000003     47.204750000000004
H      48.867449999999991     48.889150000000001     48.653750000000002
H      47.189149999999998     48.611050000000006     49.180949999999996
H      48.888249999999999     48.130750000000006     46.819050000000004
H      47.111750000000001     47.110849999999999     47.156750000000002
