32

C      46.641749999999995     47.426489999999987     47.924834999999995
C      47.915050000000001     47.677789999999995     47.293084999999998
C      47.989249999999998     50.547110000000004     51.138795000000002
C      48.848750000000003     51.363100000000003     50.224125000000001
C      46.423549999999999     48.086489999999991     49.175944999999999
C      48.731349999999992     48.883566000000009     47.461845000000004
C      49.103749999999991     50.677199999999999     48.921345000000002
C      47.259050000000002     49.086531999999998     49.586485000000010
C      48.259750000000011     49.554459999999999     48.617055000000008
C      45.995249999999999     46.276689999999995     47.380645000000001
C      46.259750000000004     45.288289999999996     46.394175000000004
C      47.354749999999996     45.798889999999993     45.685405000000003
C      48.416650000000004     46.635990000000000     46.328384999999997
C      50.248750000000001     51.171370000000003     48.063645000000001
C      49.620049999999992     45.946789999999986     46.903964999999999
C      47.601950000000002     45.989789999999992     44.158353699999999
H      45.715550000000000     43.767589999999991     45.256754999999998
H      48.204250000000002     50.944859999999998     52.298344999999998
H      49.803849999999997     51.962870000000002     50.533135000000001
H      49.451650000000001     49.653070000000007     46.818885000000002
H      44.984749999999998     46.111590000000000     47.947085000000001
H      51.015250000000002     50.285269999999990     48.211595000000003
H      45.466349999999998     47.746089999999988     50.872095000000002
H      50.010249999999999     44.850989999999989     46.943155000000004
H      50.210849999999994     46.400289999999991     47.608605000000004
H      46.865949999999998     46.812289999999997     43.701655000000002
H      46.923749999999998     45.356689999999993     43.719155000000008
H      48.644250000000000     45.886189999999992     43.911555000000000
N      47.208050000000000     49.597520000000003     50.811745000000002
O      50.434649999999998     52.232410000000009     47.597175000000000
O      45.484150000000000     44.031989999999986     46.105895000000004
O      45.454650000000001     47.430389999999996     49.891305000000003
