9

C      47.980799999999988     48.485649999999993     47.940199999999990
C      48.730399999999996     48.665850000000006     49.048899999999996
C      47.816799999999994     47.049549999999996     47.521900000000002
H      47.341900000000003     49.292850000000001     47.604100000000003
H      48.945399999999999     49.786550000000005     49.253300000000003
H      49.205300000000001     47.764949999999999     49.396899999999995
H      46.794699999999999     47.298649999999995     46.970800000000004
H      47.603199999999994     46.213449999999995     48.291699999999999
H      48.320599999999992     46.804050000000004     46.603100000000005
