6

C      47.422199999999989     48.415349999999989     47.919750000000001
C      48.535599999999995     47.665250000000000     48.189049999999995
H      47.226800000000004     49.282650000000004     47.395849999999996
H      46.434800000000003     48.029150000000001     47.913049999999998
H      48.259900000000009     46.717349999999996     48.604150000000004
H      49.565199999999997     47.656450000000007     48.296149999999997
