6

C      48.489073999999995     48.141699999999993     47.415749999999989
C      47.677870000000013     47.653599999999997     48.494350000000004
H      49.257429999999999     48.998599999999996     47.749749999999999
H      48.805384000000004     48.012500000000003     46.393449999999994
H      48.190287000000005     47.694699999999997     49.606550000000006
H      46.742570000000001     47.001400000000004     48.475950000000005
