17

C      48.537149999999997     48.806449999999998     50.823749999999990
C      46.375049999999995     48.227310000000003     48.224149999999995
C      48.428649999999998     48.165094999999994     49.653449999999999
C      47.188549999999999     47.482955000000004     47.648049999999998
C      48.466749999999998     47.485438000000002     48.431249999999999
C      47.089649999999999     47.156509999999997     46.236449999999998
C      49.661749999999991     47.432888000000005     47.600850000000001
C      48.241049999999994     46.851810000000000     45.679249999999996
C      49.574649999999998     47.051209999999998     46.197949999999999
H      47.559249999999999     49.192210000000003     51.483550000000001
H      46.224650000000004     49.212909999999994     47.741349999999997
H      45.328650000000003     47.854174000000000     48.665849999999999
H      49.460349999999998     49.375090000000000     50.926549999999999
H      46.357949999999995     47.755077000000000     45.420549999999999
H      50.418450000000000     47.990600999999998     48.111849999999997
H      48.825849999999996     47.140210000000025     44.516449999999999
H      50.671349999999997     46.624910000000000     46.038949999999993
