19

C      49.809899999999992     49.452984999999998     48.011649999999989
C      47.044899999999998     48.956245000000003     49.752449999999996
C      48.586900000000000     48.591715000000001     47.675349999999995
C      47.716799999999999     48.135785000000006     48.679249999999996
C      48.762200000000000     48.213145000000004     46.341749999999990
C      46.855000000000004     47.082455000000003     48.117449999999991
C      47.969300000000004     47.086275000000001     45.978349999999992
C      47.122399999999999     46.444614999999999     46.869149999999991
H      45.383200000000002     48.817354999999999     51.164450000000002
H      47.617999999999995     49.541904999999993     50.436349999999990
H      50.454799999999992     48.802375000000005     48.480549999999994
H      50.616799999999998     49.607165000000002     47.064049999999995
H      46.193700000000000     49.521045000000001     49.215349999999987
H      49.786100000000005     48.630085000000001     46.041849999999997
H      46.215000000000003     47.122464999999998     49.112049999999996
H      47.908200000000001     46.857435000000002     44.835549999999998
H      46.677499999999995     45.631925000000003     46.413749999999993
H      49.478999999999999     50.368074999999997     48.790849999999992
O      46.308499999999995     48.364385000000006     50.920749999999984
