18

C      46.302199999999992     46.342599999999990     47.714099999999995
C      49.107799999999997     45.814600000000006     47.778499999999994
C      47.338400000000007     47.424600000000005     47.366600000000005
C      48.710000000000008     47.278799999999997     47.373500000000007
C      47.319800000000001     48.800500000000007     47.591200000000001
C      49.749299999999991     48.192399999999999     47.256500000000003
C      48.230000000000004     49.870700000000006     47.891499999999994
C      49.508900000000011     49.550600000000010     47.470600000000005
H      45.332200000000000     46.627500000000005     47.349699999999999
H      48.981399999999994     45.913400000000003     48.934600000000003
H      46.233400000000003     46.389200000000010     48.778599999999997
H      46.257100000000001     45.207900000000002     47.570000000000000
H      48.169000000000004     45.192799999999998     47.693200000000004
H      50.124000000000009     45.433000000000000     47.495300000000000
H      46.326999999999998     49.239899999999999     47.906800000000004
H      50.667800000000000     47.952100000000009     47.065399999999997
H      48.070000000000000     50.807200000000002     48.346000000000004
H      50.017099999999999     50.520299999999999     47.460599999999999
