6

C      48.241149999999998     48.341449999999995     47.378749999999997
C      47.799549999999996     47.682250000000003     48.580050000000007
H      49.052049999999994     49.056350000000002     47.416850000000004
H      47.497249999999994     48.503250000000001     46.508850000000002
H      46.947950000000006     46.943649999999998     48.545250000000003
H      48.251750000000001     47.612549999999992     49.491149999999998
