49

C      48.732549999999996     47.666449999999990     47.092499999999987
C      47.776949999999999     46.654650000000004     46.588700000000003
C      46.121350000000007     46.826750000000004     51.112300000000005
C      48.697450000000003     48.199950000000001     48.446800000000010
C      46.720250000000007     46.200649999999996     47.473600000000005
C      47.262650000000008     47.787350000000004     50.651900000000012
C      45.780249999999995     46.138849999999998     49.979700000000008
C      47.672349999999994     47.621150000000000     49.235100000000003
C      46.640450000000001     46.617249999999999     48.777400000000000
C      49.723749999999995     48.017749999999999     46.106100000000012
C      49.531250000000000     47.613749999999996     44.753800000000012
C      48.531149999999997     46.543450000000000     44.342300000000009
C      47.825050000000005     45.856450000000002     45.339900000000000
C      50.673749999999998     48.876850000000005     46.491100000000003
C      51.716549999999998     49.410550000000001     45.568200000000004
C      51.174050000000008     49.383849999999995     44.264899999999997
C      50.085549999999998     48.518149999999991     43.765900000000002
C      50.704850000000008     49.310150000000007     47.777100000000004
C      49.826450000000008     49.056049999999999     48.910400000000010
C      49.798450000000003     50.051050000000004     50.026800000000009
C      47.693749999999994     48.834149999999994     51.612800000000007
C      45.360349999999997     46.986249999999998     52.455000000000013
C      47.884349999999998     48.890150000000006     53.068400000000011
C      48.876050000000006     51.094549999999998     49.906000000000006
C      44.845749999999995     45.095150000000004     49.391000000000005
C      48.560850000000002     45.716850000000001     43.051100000000005
H      46.044150000000002     45.499150000000000     46.941500000000005
H      52.370249999999999     50.142949999999999     45.985200000000006
H      51.918949999999995     49.525449999999999     43.426900000000003
H      51.508849999999995     49.976150000000004     48.070100000000011
H      50.687550000000002     50.008750000000006     50.691600000000008
H      47.647149999999996     45.962750000000000     42.369200000000006
H      45.830550000000002     46.433750000000003     53.382900000000006
H      45.348250000000007     48.108150000000009     52.823100000000011
H      47.928049999999999     49.761849999999995     53.781700000000001
H      47.523449999999997     47.913550000000001     53.522500000000008
H      48.208749999999995     49.699050000000000     51.345300000000009
H      49.031649999999999     51.879249999999999     50.491100000000003
H      48.373750000000001     50.866050000000001     49.007700000000014
H      44.269850000000005     46.653149999999997     52.226200000000006
H      43.629750000000001     45.287250000000000     49.486100000000008
H      44.373950000000008     45.035350000000001     48.393200000000007
H      45.305049999999994     44.120750000000001     49.525200000000012
H      49.228350000000006     46.371449999999996     42.519400000000005
H      49.313550000000006     44.798949999999998     43.299500000000009
H      49.268050000000002     47.915750000000003     42.218299999999999
H      47.469850000000008     44.200350000000000     44.377900000000011
O      50.174250000000001     48.392349999999993     42.408000000000001
O      47.164850000000001     44.655250000000002     45.139500000000012
