18

C      47.747334999999993     50.222599999999993     49.132049999999992
C      46.599864999999994     48.655900000000003     46.727849999999989
C      48.368795000000006     48.904100000000000     48.520349999999993
C      47.833035000000010     48.151600000000002     47.392649999999989
C      49.143055000000004     48.316800000000001     49.471949999999993
C      48.125015000000005     46.763500000000008     47.263549999999995
C      49.686954999999998     47.013999999999996     49.122549999999990
C      48.997754999999998     46.216600000000000     48.162049999999994
H      48.523065000000003     50.781099999999995     49.764049999999983
H      46.491775000000004     49.778400000000005     46.729549999999989
H      46.758745000000005     50.182100000000005     49.556749999999994
H      47.527425000000008     50.934100000000001     48.376849999999990
H      45.849744999999999     47.956400000000002     46.566850000000002
H      46.714505000000003     48.797799999999995     45.623649999999998
H      49.349955000000008     48.979200000000006     50.376350000000002
H      47.496465000000001     46.049999999999997     46.689549999999997
H      50.150255000000001     46.624200000000002     49.951749999999990
H      48.873305000000002     45.065899999999999     48.068550000000002
