6

C      47.884849999999993     47.929849999999988     48.522694999999985
C      48.053350000000009     48.197349999999993     47.227194999999995
H      47.422550000000001     46.973649999999999     48.818244999999990
H      48.282550000000001     48.265149999999998     49.488195000000005
H      48.577449999999999     49.026350000000001     46.773645000000002
H      47.432950000000005     47.642049999999998     46.511804999999995
