6

C      47.954999999999991     48.451649999999994     48.511744999999991
C      47.874600000000001     47.706050000000005     47.462365000000005
H      47.357999999999997     48.301150000000007     49.392584999999997
H      48.622300000000003     47.805750000000003     46.607415000000003
H      49.158999999999999     48.641949999999994     48.548055000000005
H      46.841000000000001     47.358050000000006     47.573674999999994
