21

C      48.812099999999980     49.610599999999991     48.610254999999995
C      49.470231999999989     50.966200000000001     48.389875000000004
C      49.067622999999990     48.719700000000003     47.577733000000009
C      49.546847999999983     46.066000000000003     46.302284999999998
C      48.190320000000000     47.490900000000003     47.996206999999998
C      48.452520000000007     46.325400000000002     47.184915099999998
C      47.065019999999990     47.708400000000005     48.685505000000006
C      47.440520000000006     45.348100000000002     47.593944000000008
C      46.192919999999987     46.707400000000000     49.169665000000009
C      46.364120000000000     45.538000000000004     48.420225000000002
H      48.573719999999980     49.218499999999999     49.660145000000000
H      49.361739999999990     51.676099999999998     49.248055000000008
H      49.017134999999989     51.533300000000004     47.578591000000003
H      49.394120999999984     48.957700000000003     46.598085000000012
H      50.098209999999995     47.000500000000002     46.246584999999996
H      50.294439999999994     45.121400000000001     46.396385000000009
H      46.689319999999988     48.610900000000001     49.165525000000002
H      47.788519999999984     44.323900000000002     47.288719000000000
H      45.331920000000011     47.005400000000002     49.753415000000004
H      45.865220000000001     44.638900000000000     48.680405000000007
H      50.668079999999989     50.872599999999998     48.162815000000009
