6

C      47.476599999999991     48.121449999999989     47.561949999999996
C      48.392299999999999     47.783349999999992     48.514049999999997
H      47.547100000000007     47.562049999999992     46.724149999999995
H      46.783200000000001     48.993250000000003     47.724649999999997
H      49.216799999999999     47.006749999999997     48.433650000000000
H      48.495100000000001     48.629850000000005     49.275850000000005
