18

C      48.207769999999996     49.601499999999994     46.228700000000003
C      49.101989999999994     50.084999999999994     48.869299999999996
C      46.976509999999998     49.581499999999991     46.838300000000004
C      48.420639999999999     48.948399999999992     48.917699999999996
C      47.141370000000002     48.781899999999993     48.057599999999994
C      49.094439999999999     48.266999999999996     49.983300000000000
C      47.207360000000001     47.364099999999993     48.074399999999997
C      48.908050000000003     46.907299999999992     49.795400000000001
C      47.969830000000002     46.432400000000001     48.907100000000000
H      48.228659999999998     49.853499999999997     45.165800000000004
H      49.998860000000001     50.341200000000001     49.295500000000004
H      48.772669999999998     50.625399999999999     48.011800000000008
H      46.001139999999999     49.718599999999995     46.534999999999997
H      49.203139999999998     49.397700000000000     46.835500000000010
H      49.863049999999994     48.488799999999998     50.834199999999996
H      46.269739999999999     46.933499999999995     47.813599999999994
H      49.360280000000010     46.178500000000000     50.507400000000004
H      47.749659999999999     45.374600000000001     48.784499999999994
