6

C      47.528339999999986     47.758550000000000     48.212100000000000
C      48.480239999999995     48.302949999999996     47.538399999999996
H      46.783659999999998     47.111050000000006     47.648600000000002
H      47.345489999999998     48.008350000000007     49.419200000000004
H      48.624440000000007     48.226950000000002     46.580799999999996
H      49.216340000000002     48.888949999999994     48.221100000000007
