16

C      46.338249999999995     49.639799999999980     48.888499999999993
C      46.527450000000002     49.104599999999998     47.583799999999997
C      47.154449999999997     48.746999999999993     49.694699999999997
C      47.398049999999998     47.866599999999998     47.381900000000002
C      47.624650000000003     47.796199999999992     48.854299999999995
C      48.096350000000001     47.179899999999996     46.328499999999991
C      48.499549999999999     46.658299999999990     49.149199999999993
C      49.165549999999996     46.421199999999992     46.935500000000005
C      49.365650000000002     45.962299999999992     48.382099999999994
H      45.627549999999999     50.437700000000000     49.069299999999998
H      45.778350000000003     49.485099999999996     47.145299999999992
H      47.099850000000004     48.611999999999988     50.693399999999997
H      48.047950000000000     47.292600000000000     45.306600000000003
H      48.684049999999999     46.651799999999987     50.241699999999994
H      49.584249999999997     45.736599999999989     46.161500000000004
H      50.372450000000001     45.562300000000000     48.793199999999999
