8

C      48.080899999999993     47.447949999999992     48.369549999999983
C      48.300600000000003     48.832750000000011     47.526749999999993
H      48.009100000000004     47.743250000000010     49.365150000000000
H      48.370400000000004     46.432150000000000     48.255650000000003
H      48.685199999999995     48.270950000000006     46.634850000000000
H      49.041600000000003     49.567850000000000     47.924149999999997
H      47.329000000000001     49.402650000000001     47.427049999999994
H      46.958399999999997     47.468150000000001     47.994450000000001
