6

C      48.823599999999992     48.019699999999993     48.466200000000001
C      47.518300000000004     47.863900000000001     48.052900000000008
H      48.992199999999997     49.072500000000005     48.313299999999998
H      49.097600000000000     46.938900000000004     48.367699999999999
H      47.203600000000002     46.927499999999995     47.533799999999999
H      46.902400000000000     48.826099999999997     47.788499999999999
