6

C      47.707849999999993     48.500749999999996     47.925150499999987
C      48.185650000000003     47.385450000000006     48.430890500000004
H      47.182549999999999     48.656050000000000     46.620149499999997
H      47.885150000000003     49.402449999999995     48.475250500000001
H      48.817450000000001     47.481650000000002     49.379850500000003
H      48.308150000000005     46.597550000000005     47.763750500000000
