41

C      48.312950000000001     46.209849999999989     47.858149999999995
C      46.803849999999997     50.880449999999996     48.757250000000006
C      51.839550000000003     49.750849999999986     49.232250000000001
C      47.438350000000000     47.024649999999994     48.683450000000001
C      49.731150000000000     46.561650000000000     48.049749999999996
C      46.528850000000006     49.442949999999996     48.805050000000001
C      51.534550000000010     48.384749999999997     48.793650000000007
C      48.252250000000004     51.205549999999988     49.416850000000004
C      50.682050000000004     50.687249999999992     49.282950000000007
C      47.677450000000007     48.507949999999994     48.715750000000007
C      50.137949999999989     48.041749999999993     48.575650000000003
C      49.321349999999995     50.257949999999980     49.167250000000003
C      48.986950000000007     48.858249999999984     48.983349999999994
C      48.124949999999998     44.782249999999991     48.136350000000000
C      47.102550000000008     44.292649999999995     49.015449999999994
C      45.939650000000000     45.192249999999987     49.092050000000008
C      46.088850000000008     46.661349999999999     49.066450000000010
C      44.981949999999998     47.504649999999984     49.055950000000003
C      45.113950000000003     48.919849999999983     48.777650000000001
C      50.365349999999992     45.307649999999995     48.142450000000004
C      49.379550000000009     44.266149999999996     48.330350000000003
C      47.234650000000002     51.338549999999998     47.250850000000007
C      46.460949999999997     52.071849999999998     46.691150000000000
C      43.991450000000000     49.777349999999998     48.212250000000004
H      52.951949999999997     50.127249999999989     49.445550000000004
H      52.257950000000008     47.745549999999994     48.308950000000003
H      50.652349999999998     51.889550000000000     49.270249999999997
H      45.205449999999999     44.719849999999994     49.764550000000007
H      43.903750000000002     46.984049999999996     49.140549999999998
H      51.475949999999997     45.139649999999989     48.372750000000003
H      49.545250000000010     43.167149999999992     48.697550000000000
H      47.960450000000009     50.677849999999992     46.727750000000007
H      45.803449999999998     53.090750000000000     47.414850000000001
H      45.608950000000007     52.138349999999988     45.896750000000004
H      43.812250000000006     50.800349999999995     48.779650000000004
H      43.048050000000003     49.160950000000000     48.593850000000010
H      46.341750000000005     42.909250000000000     50.103249999999996
H      46.048749999999998     51.653449999999992     49.078150000000001
H      43.987949999999998     49.867249999999999     47.096750000000007
O      48.357650000000007     52.363749999999996     49.690750000000001
O      47.081850000000003     43.064049999999995     49.517649999999996
