32

C      46.352400000000003     50.755014999999993     49.808244999999992
C      47.391599999999997     48.442095000000002     48.382044999999998
C      47.074399999999997     50.793814999999995     48.415444999999998
C      47.461700000000008     49.639575000000001     47.654044999999996
C      47.314399999999992     52.094315000000009     48.016845000000004
C      47.718000000000004     49.832525000000004     46.232225000000000
C      47.774000000000001     52.309415000000001     46.724215000000001
C      48.290900000000008     51.129415000000002     46.002555000000001
C      47.034100000000009     48.134225000000001     49.767645000000002
C      49.638800000000003     45.978115000000003     50.082044999999994
C      47.311500000000009     46.682414999999999     49.640245000000000
C      48.411400000000000     46.002535000000002     49.131545000000003
C      46.349200000000010     46.103324999999998     50.643445000000000
C      48.324900000000000     44.489015000000002     48.875245000000000
C      46.450800000000001     44.692205000000001     50.442944999999995
C      47.211500000000001     43.932865000000000     49.392744999999998
H      50.039100000000005     45.067205000000001     50.326845000000006
H      47.193600000000004     50.893014999999998     50.548144999999991
H      46.083900000000000     51.776714999999996     50.191645000000001
H      47.767400000000009     47.419984999999997     47.890745000000003
H      46.797400000000010     52.969214999999991     48.615544999999997
H      47.289999999999992     49.228925000000004     45.476374999999997
H      48.158600000000007     53.218814999999999     46.430664999999998
H      48.145800000000008     51.168814999999995     44.909255000000002
H      45.660800000000009     49.897624999999998     49.904645000000002
H      46.205800000000011     48.638014999999996     50.435945000000004
H      50.551999999999992     46.602744999999999     49.603845000000000
H      49.218900000000005     46.059365000000000     51.090744999999998
H      45.448000000000008     46.770465000000002     51.003545000000003
H      48.835900000000009     43.986395000000002     47.950144999999999
H      45.569100000000006     44.333534999999998     50.991644999999998
H      46.951599999999999     42.781185000000001     49.198644999999999
