6

C      48.551599999999993     47.865599999999993     47.614149999999988
C      47.596299999999992     47.998599999999996     48.441449999999989
H      49.555000000000000     47.880899999999997     48.111049999999992
H      48.168599999999991     47.561899999999994     46.452050000000000
H      47.734000000000002     48.438100000000006     49.547950000000000
H      46.445000000000000     47.872900000000001     48.419749999999993
