36

C      50.728499999999990     48.588399999999993     49.314199999999992
C      50.872699999999995     49.487699999999990     50.451300000000003
C      50.874899999999997     47.802599999999998     48.338999999999999
C      48.305599999999998     46.537599999999998     46.971699999999998
C      50.572599999999994     47.222099999999998     47.108500000000006
C      49.205799999999996     47.153499999999994     46.375399999999999
C      51.770199999999988     47.393799999999999     46.387400000000000
C      49.275899999999993     47.324500000000000     45.043499999999995
C      51.707299999999989     47.872100000000003     45.084299999999999
C      50.465199999999996     47.828599999999994     44.419600000000003
C      47.027399999999993     46.939899999999994     49.226699999999994
C      47.352099999999993     47.281700000000001     47.960899999999995
C      44.651599999999995     47.789499999999990     47.757800000000003
C      46.330299999999994     48.116900000000001     47.266500000000008
C      44.866599999999998     48.035799999999995     49.212999999999994
C      46.010999999999996     47.721699999999998     50.000699999999995
C      44.048099999999998     48.967699999999994     49.977199999999996
C      46.175099999999993     48.359699999999989     51.287000000000006
C      44.252499999999998     49.584999999999994     51.280200000000008
C      45.455999999999996     49.269999999999996     51.977300000000000
H      50.620499999999993     50.489899999999992     50.374700000000004
H      50.638199999999998     48.916600000000003     51.380800000000008
H      48.285399999999996     45.484099999999998     47.015600000000006
H      52.688399999999987     47.529299999999992     47.039000000000001
H      48.386299999999999     47.004300000000001     44.357299999999995
H      52.700800000000001     48.347999999999999     44.468900000000005
H      50.368099999999998     48.101500000000001     43.302300000000002
H      47.871999999999993     46.683499999999995     49.795699999999997
H      44.439099999999996     46.632899999999992     47.559899999999999
H      43.968399999999995     48.443299999999994     47.117199999999997
H      46.234099999999998     48.152900000000002     45.920800000000000
H      46.552299999999995     49.239400000000003     47.842100000000002
H      43.299199999999999     49.048599999999993     49.224000000000004
H      47.157199999999996     48.336599999999990     51.454000000000008
H      43.634199999999993     50.515900000000002     51.552899999999994
H      45.932999999999993     49.819699999999997     52.697699999999998
