46

C      49.159704999999995     46.767199999999988     48.281249999999993
C      49.869704999999996     47.990000000000002     47.786750000000005
C      44.983105000000002     49.325499999999998     48.398550000000000
C      45.752704999999999     50.560399999999994     48.221150000000002
C      47.690004999999999     46.840200000000003     48.403649999999999
C      49.091504999999998     48.952899999999993     47.270250000000004
C      45.462505000000000     47.979799999999990     48.013350000000003
C      46.968405000000004     50.426899999999996     47.474250000000005
C      46.977905000000000     47.981999999999992     47.966349999999998
C      47.552605000000000     49.110899999999994     47.357550000000003
C      49.937505000000002     45.787999999999997     48.976050000000001
C      51.340705000000000     45.866499999999995     49.417950000000005
C      52.029105000000001     47.012999999999998     48.792050000000003
C      51.358805000000004     47.893499999999996     47.923050000000003
C      43.658895000000001     49.284999999999997     48.870850000000004
C      43.176065000000001     50.534399999999998     49.329350000000005
C      44.149055000000004     51.646999999999998     49.357050000000001
C      45.310204999999996     51.759899999999995     48.835650000000001
C      48.981004999999996     45.033600000000000     49.834550000000000
C      49.668205000000000     44.113399999999999     50.697450000000003
C      51.065905000000001     44.006899999999995     50.727350000000001
C      51.985704999999996     44.882399999999997     50.173349999999999
C      47.563604999999995     44.796299999999995     49.685549999999999
C      46.867604999999998     45.815999999999995     49.007850000000005
C      45.415005000000001     45.699799999999996     48.697350000000000
C      44.684155000000004     46.728099999999998     48.196150000000003
C      49.683705000000003     49.445900000000002     45.920150000000000
C      50.578004999999997     50.569899999999997     45.904250000000005
C      51.537405000000000     51.349299999999992     45.369650000000000
H      47.495204999999999     51.362999999999992     47.317150000000005
H      43.486955000000002     48.255999999999993     49.443849999999998
H      42.452694999999999     50.302799999999998     50.081350000000000
H      43.762545000000003     52.592599999999997     49.967050000000000
H      45.895105000000001     52.858200000000004     48.738550000000004
H      49.531205000000000     43.141799999999996     51.227850000000004
H      51.396505000000005     43.445299999999996     51.683250000000001
H      53.158304999999999     44.945699999999995     50.455350000000010
H      47.189504999999997     43.651800000000001     50.059750000000008
H      45.013104999999996     44.773299999999999     49.044449999999998
H      43.547435000000000     46.602899999999998     48.094050000000003
H      52.403005000000000     52.160900000000005     45.834350000000001
H      51.845204999999993     48.591099999999990     47.140050000000002
H      53.547305000000001     46.216000000000001     49.359250000000003
H      51.670704999999998     51.556599999999996     44.316749999999999
O      49.079405000000001     48.940700000000000     44.987450000000003
O      53.368504999999999     47.132199999999990     49.094850000000001
