20

C      46.004400999999987     46.405599999999993     47.132349999999995
C      46.074341000000004     47.607099999999996     50.181449999999998
C      47.218551000000005     46.868800000000000     46.435350000000000
C      47.163751000000005     46.946599999999997     49.917550000000006
C      48.088251000000000     47.708800000000004     47.335549999999998
C      48.055121000000000     47.600900000000003     48.805250000000001
C      48.960470999999998     48.701200000000000     46.713750000000005
C      49.002711000000005     48.308399999999999     49.497050000000002
C      50.047171000000006     49.320200000000000     47.327849999999998
C      50.066430999999994     48.871500000000005     48.672049999999999
H      45.306806999999992     47.090800000000002     50.675950000000000
H      45.973741000000004     46.171700000000001     48.285849999999996
H      45.810811000000001     48.497099999999996     49.603149999999999
H      45.024008999999992     46.861699999999992     46.752750000000006
H      47.463941000000005     46.684300000000000     45.324050000000000
H      47.694731000000004     46.146599999999999     50.568750000000009
H      48.448941000000005     49.023699999999998     45.673250000000010
H      49.039350999999996     48.467300000000002     50.649349999999998
H      50.975991000000008     49.853400000000001     47.005350000000007
H      50.865190999999996     49.493299999999998     49.351750000000010
