6

C      48.216899999999995     47.379549999999995     47.981250000000003
C      47.478899999999996     48.523349999999994     48.153349999999989
H      48.697399999999988     46.815049999999999     48.910449999999997
H      48.965199999999996     47.176450000000003     47.067750000000004
H      47.181100000000001     49.127649999999988     48.932249999999996
H      47.034800000000004     49.184950000000001     47.298150000000007
