6

C      48.212899999999991     48.241450000000000     48.622398999999994
C      47.408299999999997     47.889049999999997     47.486359999999998
H      49.126000000000005     49.020449999999997     48.632934000000006
H      47.479500000000002     48.431550000000001     49.405439999999999
H      46.873999999999995     46.979550000000003     47.457560000000001
H      47.805199999999999     47.990350000000007     46.594560000000001
