6

C      48.235234999999989     47.708249999999992     47.491049999999987
C      47.521585000000002     48.200650000000010     48.337350000000001
H      48.025115000000000     48.511250000000004     46.575450000000004
H      48.520555000000002     46.582149999999999     47.363150000000005
H      47.479444999999998     49.417850000000001     48.093750000000000
H      47.550615000000008     47.813650000000010     49.424549999999996
