9

C      48.219099999999997     46.625899999999994     47.372949999999989
C      47.498800000000003     48.726699999999994     48.412549999999996
C      48.454100000000004     47.944500000000005     47.568950000000001
H      48.441600000000001     46.316900000000004     46.433149999999998
H      47.453499999999998     46.571600000000004     48.167249999999996
H      47.472200000000001     48.385700000000000     49.566850000000002
H      46.584499999999998     48.972799999999992     48.057649999999995
H      48.006100000000004     49.683099999999996     48.685850000000002
H      49.415500000000002     48.283000000000001     46.959450000000004
