5

C      48.022229999999993     48.006449999999994     48.025099999999995
H      47.133670000000002     48.584649999999996     47.820200000000000
H      48.239229999999999     48.840649999999997     48.798699999999997
H      47.807930000000006     47.159350000000003     48.740399999999994
H      48.866329999999998     47.821650000000005     47.201300000000003
