69

C      49.500799999999998     49.784179999999992     45.857070000000000
C      49.070200000000007     49.363680000000002     47.244969999999995
C      49.663300000000000     45.195779999999999     44.296270000000007
C      49.488700000000001     48.918979999999991     44.794970000000006
C      48.746299999999998     47.911779999999993     47.393770000000004
C      49.947399999999995     46.549480000000003     44.227570000000000
C      49.396099999999997     47.421880000000002     45.221770000000006
C      48.761999999999993     46.973079999999996     46.383570000000006
C      49.461300000000001     51.221179999999990     45.470169999999996
C      49.372199999999999     52.122279999999989     46.554770000000005
C      48.901999999999994     51.719479999999990     47.941069999999996
C      48.941200000000002     50.317779999999999     48.295370000000005
C      49.890200000000000     51.655980000000000     44.164469999999994
C      49.616800000000005     53.066679999999991     43.985370000000003
C      49.208599999999997     53.952579999999998     44.928669999999997
C      49.342300000000002     53.507579999999990     46.285070000000005
C      50.093700000000005     50.752279999999999     43.098070000000007
C      49.734699999999997     49.341679999999997     43.386769999999999
C      49.168100000000003     52.626579999999990     49.049469999999999
C      49.461800000000004     52.440779999999990     50.377470000000002
C      49.499000000000002     51.066580000000002     50.588369999999998
C      49.034600000000005     50.050579999999997     49.706270000000004
C      49.300999999999995     54.402579999999986     47.462969999999999
C      49.110099999999996     54.085279999999997     48.772170000000003
C      48.480600000000003     48.748679999999993     49.890569999999997
C      48.260799999999996     47.729879999999994     48.756270000000001
C      50.530899999999995     48.337580000000003     42.570670000000007
C      49.743699999999997     47.071479999999994     42.792969999999997
C      47.594299999999997     46.641880000000000     49.605770000000007
C      46.077599999999997     46.770780000000002     49.770769999999999
C      49.500400000000006     54.145779999999988     42.854270000000000
C      49.383599999999994     41.620149999999995     51.775769999999994
C      48.641799999999996     42.220249999999993     50.563670000000002
C      45.641299999999994     45.922680000000000     50.791570000000007
C      47.892100000000006     43.309889999999996     50.571470000000005
C      46.449300000000001     44.805499999999995     51.366770000000002
C      47.927900000000001     44.683079999999990     51.329470000000001
C      45.716600000000007     44.515349999999998     52.473269999999999
C      48.542700000000004     44.543289999999999     52.718969999999999
C      46.475800000000000     43.894170000000003     53.496608000000009
C      47.870299999999993     43.787269999999992     53.748244999999997
H      48.485999999999997     46.043480000000002     46.630870000000002
H      48.904599999999995     55.088179999999994     44.935770000000005
H      50.368400000000001     51.066980000000001     42.087670000000003
H      49.642699999999998     53.418480000000002     50.848969999999994
H      49.606500000000004     50.869879999999995     51.624369999999999
H      49.392500000000005     55.514679999999998     47.266170000000002
H      49.368800000000000     54.811479999999989     49.569569999999999
H      47.973800000000004     48.606679999999997     50.904470000000003
H      51.534699999999994     48.054079999999999     42.930170000000004
H      50.540799999999997     48.625579999999999     41.517669999999995
H      48.582799999999999     47.338880000000003     42.777469999999994
H      50.321000000000005     46.424779999999998     41.870670000000004
H      45.500499999999995     47.398579999999995     49.009069999999994
H      49.776199999999996     55.244879999999995     43.068770000000001
H      49.049699999999994     41.826619999999991     52.876170000000002
H      48.601300000000002     41.484549999999999     49.697170000000000
H      50.451200000000007     41.902019999999993     51.656869999999998
H      44.465300000000006     45.883079999999993     50.979969999999994
H      47.735400000000006     45.769080000000002     48.829070000000002
H      49.182300000000005     40.485320000000002     51.878370000000004
H      47.470099999999995     43.162480000000002     49.524370000000005
H      44.533899999999996     44.732990000000001     52.671270000000007
H      49.244400000000006     45.016669999999991     53.220092000000008
H      45.764199999999995     43.377969999999991     54.201100000000011
H      48.616899999999994     43.343279999999993     54.482330000000005
N      49.618100000000005     44.086869999999990     44.713369999999998
O      48.493199999999995     45.994479999999996     50.691469999999995
O      48.839599999999997     53.863779999999991     41.942869999999999
