7

C      48.198499999999989     48.298349999999992     47.213349999999991
C      47.706800000000001     47.789549999999991     48.456649999999996
H      49.298100000000005     47.484249999999989     49.484750000000005
H      49.226799999999997     48.041349999999994     46.805149999999998
H      47.694900000000004     48.836849999999998     46.438550000000006
H      46.701899999999995     47.740049999999997     48.475650000000016
O      48.361500000000007     47.163150000000002     49.561449999999994
