6

C      48.184954999999988     48.319399999999987     48.225599999999993
C      48.091724999999997     47.385800000000003     47.162899999999993
H      47.594894999999994     49.226100000000002     48.173100000000005
H      48.743645000000001     47.976700000000008     49.189599999999999
H      48.954305000000005     46.773899999999998     46.810400000000001
H      47.045694999999995     47.273200000000003     46.905199999999994
