9

C      47.077699999999993     48.500199999999992     48.226749999999996
C      49.007600000000004     46.772499999999994     48.264749999999999
C      47.896300000000004     47.342699999999994     47.605650000000004
H      47.388399999999997     48.417500000000004     49.342649999999999
H      46.089400000000005     48.122799999999998     47.830450000000006
H      47.276199999999996     49.603899999999996     48.175249999999998
H      49.103999999999992     46.396100000000004     49.328049999999998
H      48.083700000000000     47.103099999999998     46.657350000000001
H      49.910599999999995     46.776399999999995     47.651950000000006
