24

C      47.953984999999989     47.504299999999994     49.475809999999989
C      49.068385000000006     48.166100000000000     50.447209999999998
C      45.750245000000007     47.587800000000001     48.724309999999996
C      46.686485000000005     48.410700000000006     49.680109999999999
C      45.875685000000004     46.684699999999999     47.688419999999994
C      49.119785000000007     49.443799999999996     50.879509999999996
C      47.269985000000005     46.943000000000005     47.174869999999999
C      48.370185000000006     47.431600000000003     47.936909999999997
C      47.832985000000008     46.669300000000000     45.825710000000001
C      49.612684999999999     47.709700000000012     47.426509999999993
C      49.040885000000003     46.951900000000002     45.263039999999997
C      50.080785000000006     47.364600000000003     46.212569999999999
H      47.864885000000001     46.551800000000000     49.987909999999999
H      49.343784999999997     47.411500000000004     51.129309999999997
H      44.883615000000006     47.809300000000000     49.297010000000000
H      46.781284999999997     49.588000000000008     49.768009999999997
H      46.437725000000000     48.063400000000001     50.745210000000000
H      45.020655000000005     46.029600000000002     47.262569999999997
H      48.364785000000012     49.970399999999998     50.447810000000004
H      49.745585000000005     49.699200000000005     51.824410000000000
H      47.258285000000001     46.095500000000001     44.911199999999994
H      49.949884999999995     48.309600000000003     48.225409999999997
H      49.278385000000000     47.033999999999999     44.175590000000000
H      51.116384999999994     47.686799999999991     46.015079999999998
