6

C      47.854999999999990     48.543499999999995     48.331849999999989
C      47.949199999999998     47.507700000000000     47.624150000000000
H      48.489799999999995     49.421500000000002     47.941150000000000
H      47.335500000000003     48.550900000000006     49.203650000000003
H      48.664499999999997     47.389699999999998     46.796349999999997
H      47.472599999999993     46.578499999999998     47.515850000000000
