57

C      44.055699999999995     52.439549999999990     46.275999999999996
C      49.867300000000000     45.933650000000000     50.025900000000000
C      49.452600000000004     47.228149999999999     50.710500000000003
C      46.043400000000005     45.850849999999994     47.266200000000005
C      45.561300000000003     47.096350000000001     47.876899999999999
C      49.066999999999993     45.035550000000001     49.269299999999994
C      48.251400000000004     47.836749999999995     50.348300000000002
C      47.066400000000002     45.149149999999999     47.765899999999995
C      46.429499999999997     47.712750000000000     48.956499999999998
C      47.939399999999992     45.726950000000002     48.813600000000001
C      47.513800000000003     47.034849999999999     49.247300000000003
C      51.160600000000002     45.446950000000001     50.262899999999995
C      52.107199999999999     46.084750000000000     51.127199999999995
C      51.596000000000004     47.235650000000000     51.863899999999994
C      50.385700000000000     48.057450000000003     51.553900000000006
C      43.497000000000000     51.394250000000000     45.873700000000007
C      43.826799999999999     50.063850000000002     46.193500000000007
C      44.466500000000011     49.469250000000002     47.288000000000004
C      44.563099999999991     47.962449999999997     47.316600000000001
C      49.661699999999996     43.799949999999995     48.694899999999997
C      50.974600000000002     43.894349999999996     47.990299999999998
C      51.871200000000002     44.656849999999999     49.203899999999997
C      48.029100000000000     49.207549999999998     50.815099999999994
C      48.660899999999998     49.908649999999994     51.950300000000006
C      49.995800000000003     49.273249999999997     51.967099999999995
C      49.234900000000010     42.545850000000002     48.844000000000001
C      47.865900000000011     42.224149999999995     49.319799999999994
C      43.787500000000001     49.036050000000003     45.043100000000003
C      44.197699999999998     53.561650000000000     45.356900000000003
C      44.207000000000008     53.396749999999997     43.887099999999997
H      44.393400000000000     52.658450000000002     47.167899999999996
H      43.598800000000004     49.562249999999999     44.080999999999996
H      45.536100000000005     45.239750000000001     46.578700000000005
H      46.586399999999998     48.740150000000000     49.123200000000004
H      52.013099999999994     47.524249999999995     52.925199999999997
H      42.611100000000000     51.486149999999995     45.251600000000003
H      44.734800000000007     49.927750000000003     48.166699999999999
H      44.449400000000004     47.235550000000003     46.455499999999994
H      50.966799999999999     44.637149999999998     47.202599999999997
H      51.406100000000002     42.967449999999999     47.669199999999996
H      52.752300000000005     45.308250000000001     48.492899999999999
H      52.385300000000001     43.768349999999998     49.788500000000006
H      46.994500000000002     49.805850000000000     50.678900000000006
H      50.692899999999995     50.114350000000002     52.316399999999994
H      48.469500000000011     50.958050000000000     52.279400000000003
H      47.812899999999999     41.880350000000000     50.451699999999995
H      47.703800000000001     41.436549999999997     48.463199999999993
H      47.298299999999998     43.237749999999998     49.556300000000000
H      53.264099999999999     44.632750000000001     51.470499999999994
H      44.724000000000004     48.877549999999999     44.749299999999998
H      43.067500000000003     48.210549999999998     45.118900000000004
H      47.382199999999997     44.397250000000000     47.201600000000006
H      44.545400000000001     54.563450000000003     45.742100000000001
H      45.145600000000002     53.146850000000001     43.189900000000002
H      43.661099999999998     53.587649999999996     43.074800000000003
O      49.882300000000001     41.562150000000003     48.599200000000003
O      53.388900000000000     45.587350000000001     51.178699999999999
