14

C      46.604900000000001     47.186999999999998     46.071599999999989
C      47.413499999999999     47.347899999999996     47.193300000000008
C      47.016400000000004     48.364199999999997     48.233199999999997
C      48.813400000000001     47.011200000000002     47.504999999999995
C      47.475000000000009     48.628099999999989     49.482300000000009
C      49.456000000000003     47.415000000000006     48.692200000000000
C      48.655200000000008     47.871699999999990     49.802800000000005
H      45.579400000000007     47.234200000000001     46.252600000000001
H      47.113100000000003     47.807100000000005     45.304400000000001
H      45.987200000000001     48.772800000000004     48.125799999999998
H      49.543599999999998     46.638000000000005     46.668700000000001
H      47.048100000000005     49.361999999999995     50.182000000000002
H      50.420599999999993     46.935699999999997     48.809799999999996
H      49.180400000000006     47.763599999999997     50.695599999999999
