8

C      47.425500000000000     48.695499999999988     48.177899999999994
C      48.134499999999989     47.237000000000002     47.873399999999997
H      48.225799999999992     49.409199999999998     48.137700000000002
H      46.865300000000005     48.954800000000006     47.294999999999995
H      47.167199999999994     48.633700000000005     49.196099999999994
H      49.134699999999995     47.174399999999999     48.394600000000004
H      47.324100000000001     46.590800000000002     48.276599999999995
H      48.281099999999995     47.215000000000003     46.803900000000006
