18

C      48.545549999999992     50.057864999999993     47.985349999999990
C      47.421149999999997     48.879244999999997     46.018550000000005
C      47.719549999999998     48.796584999999993     48.289649999999995
C      47.127849999999995     47.965864999999994     47.345250000000007
C      47.665050000000008     48.377465000000001     49.703350000000000
C      46.968750000000000     46.594364999999996     47.439049999999995
C      47.188450000000003     47.046454999999995     49.904550000000000
C      46.593550000000008     46.287994999999995     48.849149999999995
H      48.483350000000002     49.283765000000002     45.871650000000002
H      49.809550000000002     49.971665000000002     48.261049999999997
H      46.398750000000007     49.340464999999995     46.232749999999996
H      48.012050000000002     50.666465000000002     48.782849999999996
H      48.894149999999996     49.894064999999998     47.029949999999999
H      47.410049999999998     48.501294999999999     45.094049999999996
H      47.503150000000005     49.253564999999995     50.507050000000007
H      46.952449999999999     45.948524999999989     46.787949999999995
H      46.957049999999995     47.076875000000001     50.905950000000004
H      46.190449999999998     45.333534999999998     48.890450000000001
