23

C      45.850599999999993     48.491249999999994     49.120449999999991
C      46.596699999999998     47.548049999999996     49.694749999999985
C      46.705299999999994     49.466649999999994     48.209249999999997
C      47.118199999999987     46.544350000000001     48.546049999999994
C      48.024899999999988     48.880649999999996     47.530249999999995
C      47.962099999999992     47.496450000000003     47.685149999999993
C      49.244999999999990     49.497350000000004     46.889349999999993
C      48.730800000000002     46.773949999999999     46.672950000000000
C      50.000699999999995     48.711750000000002     46.045549999999992
C      49.723799999999997     47.305650000000000     45.890349999999998
H      47.584399999999988     45.698549999999997     50.079049999999995
H      45.417099999999998     48.935350000000007     50.093249999999998
H      45.021699999999996     48.031150000000004     48.694350000000000
H      46.002499999999998     47.087550000000000     50.542050000000003
H      47.441999999999993     48.131549999999997     50.362150000000000
H      46.884699999999995     50.558450000000001     48.768050000000002
H      45.835099999999997     49.771149999999999     47.579549999999998
H      46.116899999999994     46.176849999999995     48.166449999999998
H      49.572599999999994     50.489749999999994     46.532150000000001
H      48.323899999999995     45.679150000000000     46.432350000000000
H      50.978300000000004     49.116549999999997     45.476749999999996
H      50.396899999999988     46.560449999999996     45.457949999999997
O      47.726399999999998     45.441549999999999     49.218449999999990
