40

C      51.833999999999989     49.369949999999989     46.467724999999994
C      50.386600000000001     47.986149999999995     47.881445000000006
C      50.280099999999997     47.377949999999991     49.258395000000007
C      45.381700000000002     48.217949999999995     47.942535000000007
C      45.305999999999997     47.532049999999991     49.208495000000013
C      49.301400000000001     48.513549999999995     47.201616000000016
C      49.010999999999996     46.864849999999997     49.723245000000006
C      46.679099999999998     48.208749999999995     47.105464999999995
C      46.698699999999995     47.428949999999993     49.936335000000000
C      48.049099999999996     47.987049999999996     47.760265000000004
C      47.963600000000000     47.751949999999994     49.186375000000012
C      51.830700000000000     48.529349999999994     47.623005000000006
C      52.780300000000004     48.001349999999995     48.609595000000006
C      52.540999999999997     47.026049999999991     49.552805000000006
C      51.269700000000000     46.798349999999992     50.040685000000003
C      44.252600000000001     48.627749999999999     47.219865999999996
C      43.066699999999997     48.596449999999997     47.841245000000001
C      42.969999999999999     47.908949999999997     49.148385000000005
C      44.009999999999998     47.172449999999991     49.669235000000000
C      41.496200000000002     47.658749999999991     49.395804999999996
C      54.249600000000008     48.515449999999994     45.878725000000003
H      51.034900000000000     49.327049999999993     45.466025000000002
H      49.298099999999998     49.168949999999995     46.326324999999997
H      49.078600000000002     46.399349999999991     50.781675000000007
H      46.677999999999997     49.358849999999997     46.404325000000000
H      46.883099999999999     46.541249999999998     50.468115000000004
H      53.731400000000001     48.250849999999993     48.387555000000006
H      53.497900000000001     46.424649999999993     50.007045000000005
H      50.804000000000002     45.936749999999996     50.724535000000003
H      44.467999999999996     49.079049999999995     46.205725000000001
H      42.172199999999997     49.128549999999997     47.559660000000008
H      43.838899999999995     46.613449999999993     50.549685000000011
H      41.420499999999997     48.601949999999995     50.028085000000004
H      46.556599999999996     48.226549999999996     50.749275000000011
H      53.985000000000007     47.690749999999994     45.218324999999993
H      53.816899999999997     47.865949999999991     46.802726000000007
H      46.522500000000001     47.506249999999994     46.141925000000001
H      55.442000000000000     48.561249999999994     45.896225000000001
O      40.558000000000000     47.117649999999990     48.856504999999999
S      53.249499999999991     50.063250000000004     45.762625000000000
