6

C      48.238499999999988     48.418249999999993     48.583350000000003
C      47.713999999999999     47.766050000000007     47.533349999999999
H      47.728200000000001     48.230350000000001     49.543350000000004
H      49.210700000000003     48.844149999999999     48.316150000000007
H      48.007199999999997     47.954549999999998     46.456649999999996
H      46.789299999999997     47.155850000000001     47.824150000000003
