15

C      45.112449999999995     47.490352499999993     48.049349999999983
C      46.528850000000006     47.539052499999997     48.331350000000000
C      48.779750000000007     46.790192499999996     47.424449999999993
C      47.869050000000001     47.711202499999999     47.977049999999991
C      50.082849999999993     47.097632500000003     47.338349999999991
C      48.253249999999994     49.124482499999999     48.505249999999990
C      50.515850000000000     48.417612499999997     47.752049999999997
C      49.584750000000000     49.277952499999998     48.411349999999999
H      45.164850000000001     48.625192499999997     47.745549999999994
H      48.296650000000000     45.915047500000000     47.080349999999996
H      44.440250000000006     46.702460500000001     47.980649999999997
H      50.948449999999994     46.397816499999998     46.982849999999999
H      47.574349999999995     49.641222499999998     49.017150000000001
H      51.559749999999994     48.874182500000003     47.771649999999994
H      49.772350000000003     50.084952500000000     48.918349999999990
