17

C      47.185649999999995     49.425699999999992     49.830349999999996
C      47.069749999999999     46.527699999999996     49.030749999999998
C      47.829250000000002     48.749299999999991     48.593750000000000
C      47.924050000000008     47.379199999999997     48.731250000000003
C      48.317650000000000     49.656700000000001     47.551249999999996
C      49.049750000000003     46.767299999999992     47.935550000000006
C      49.009649999999993     48.993299999999991     46.563550000000006
C      49.523449999999997     47.594899999999996     46.990049999999997
H      47.530950000000004     45.948200000000000     49.853450000000009
H      46.505049999999997     50.259799999999998     49.553049999999999
H      46.620649999999998     48.584400000000002     50.353450000000009
H      47.991249999999994     49.875599999999991     50.493250000000003
H      46.010450000000006     46.233499999999992     48.888550000000009
H      47.639049999999997     50.344999999999999     47.176150000000007
H      49.322749999999999     45.655000000000001     47.986550000000008
H      49.061450000000008     49.356200000000001     45.506749999999997
H      49.989549999999994     46.850999999999999     46.335149999999999
