21

C      46.454799999999999     47.578199999999995     46.081649999999996
C      49.133499999999998     45.557699999999997     48.239049999999992
C      47.338900000000010     47.907699999999998     46.919749999999993
C      48.817200000000000     46.582900000000002     49.433350000000004
C      47.700700000000012     48.507700000000007     48.109649999999988
C      48.732200000000006     48.075899999999997     49.087850000000003
C      46.917600000000007     49.604100000000003     48.633949999999999
C      49.627900000000011     49.106999999999999     49.564350000000005
C      47.612099999999998     50.456600000000002     49.520349999999993
C      48.939599999999999     50.322899999999997     49.976050000000001
H      46.680900000000008     47.345799999999997     45.038849999999996
H      45.358800000000002     47.829900000000002     45.994749999999996
H      48.883300000000006     45.912100000000002     47.183649999999986
H      50.265000000000001     45.093899999999998     47.988349999999997
H      48.379900000000006     44.734000000000002     48.446849999999998
H      47.745300000000000     46.303100000000001     49.912649999999985
H      49.252800000000008     46.305700000000002     50.412849999999992
H      45.991500000000002     49.753799999999991     48.177449999999993
H      50.641199999999998     49.188200000000002     50.312649999999991
H      47.097600000000000     51.265999999999998     50.243949999999984
H      49.246600000000001     50.704700000000003     50.961150000000004
