5

C      48.243379999999988     47.946029999999993     47.921749999999989
H      48.785930000000008     47.288899999999998     47.100050000000003
H      47.162639999999996     48.081470000000003     47.799550000000004
H      48.837360000000004     48.723830000000000     47.768949999999997
H      48.511630000000011     47.276170000000000     48.899949999999997
