18

C      47.999649999999988     49.692699999999995     47.122249999999994
C      48.250749999999996     47.172799999999995     45.861750000000001
C      48.079549999999998     48.535100000000000     48.071250000000006
C      47.873149999999995     47.340699999999998     47.413250000000005
C      47.406449999999992     48.650999999999996     49.365849999999995
C      47.592349999999996     46.179899999999989     48.114249999999998
C      47.279949999999999     47.548499999999990     50.105549999999994
C      47.386049999999997     46.254800000000003     49.502849999999995
H      48.673249999999996     47.241199999999992     44.789850000000001
H      47.826750000000004     50.665999999999997     47.700350000000000
H      49.042550000000006     49.540199999999999     46.530850000000001
H      47.421250000000001     46.485699999999994     45.619450000000001
H      49.344250000000002     47.050299999999993     46.246650000000002
H      46.655749999999998     49.577199999999991     49.469650000000001
H      47.716149999999999     45.501399999999990     47.291150000000002
H      46.878150000000005     47.478899999999996     51.210149999999999
H      47.485849999999999     45.334000000000003     50.105450000000005
H      47.406250000000000     49.600699999999989     46.251549999999995
