24

C      45.047799999999995     46.500049999999987     47.637849999999993
C      45.336800000000011     47.506950000000003     48.617350000000002
C      45.611200000000011     48.827449999999999     48.152649999999994
C      47.778900000000007     46.883550000000000     46.406350000000003
C      46.714500000000015     49.386750000000006     47.574950000000001
C      48.376500000000007     47.499849999999995     47.611850000000004
C      48.076200000000000     48.822150000000008     48.035349999999994
C      49.692600000000013     47.147949999999994     47.968149999999994
C      48.791200000000018     49.584249999999997     49.092449999999999
C      50.509400000000014     47.899950000000004     48.829849999999993
C      49.954600000000013     49.058450000000008     49.651949999999999
H      44.431899999999999     45.614450000000005     48.255049999999997
H      44.470500000000001     47.005350000000007     46.674449999999993
H      45.913499999999999     45.829449999999994     47.704149999999998
H      46.862800000000007     50.385549999999995     47.230649999999997
H      44.622399999999999     47.568350000000009     49.493049999999997
H      44.613000000000000     49.355750000000000     47.888249999999999
H      48.542500000000004     46.213049999999996     45.781350000000003
H      46.680900000000008     47.305050000000008     46.064949999999996
H      46.333500000000001     47.126950000000008     49.277550000000005
H      50.321200000000005     46.443849999999998     47.395150000000001
H      48.305000000000007     50.205150000000003     49.799449999999993
H      51.568100000000001     47.826850000000007     48.978549999999998
H      50.688700000000011     49.586449999999999     50.218649999999997
