22

C      49.151334999999982     49.659849999999992     49.141749999999988
C      50.623347099999997     47.188049999999997     46.567649999999993
C      48.287934999999990     48.805450000000000     49.378049999999995
C      49.784134999999992     46.974849999999996     47.839250000000000
C      47.540834999999987     47.963450000000002     48.539849999999994
C      48.256234999999990     47.013649999999998     47.757649999999991
C      46.135134999999991     47.915649999999999     48.531149999999997
C      47.607634999999988     46.018650000000001     46.989349999999995
C      45.576334999999986     47.130649999999996     47.485650000000000
C      46.216434999999990     46.059949999999994     46.837049999999998
H      49.929234999999991     49.840650000000004     49.912349999999996
H      48.949234999999987     50.728749999999998     48.780049999999996
H      50.142534999999995     47.756250000000001     48.487749999999998
H      51.601565000000008     46.571149999999996     46.616349999999990
H      49.935134999999988     47.036650000000002     45.552450000000000
H      48.449734999999990     48.472549999999998     50.447550000000000
H      50.951642999999990     48.252949999999998     46.178149999999995
H      45.635134999999991     48.743249999999996     48.895849999999996
H      48.187134999999998     45.390049999999995     46.321049999999993
H      44.398434999999992     47.211449999999999     47.493749999999999
H      45.963434999999990     45.271250000000002     45.776750000000000
H      50.110334999999992     46.016050000000000     48.163149999999995
