21

C      47.036049999999982     49.990149999999993     47.086899999999993
C      45.958549999999988     49.093150000000009     46.635800000000003
C      49.417549999999991     50.027850000000001     49.246300000000005
C      48.290349999999989     49.268550000000005     46.388099999999994
C      49.343449999999990     48.731350000000006     48.873000000000005
C      48.636349999999993     48.465850000000003     47.686800000000005
C      50.136349999999993     47.783450000000002     49.544600000000003
C      48.320349999999991     47.127049999999997     47.557500000000005
C      49.641149999999996     46.501850000000005     49.427800000000005
C      48.606549999999999     46.120450000000005     48.500500000000002
H      50.223050000000001     50.231949999999998     50.213600000000000
H      46.938549999999992     50.951650000000001     47.571500000000000
H      46.181550000000001     48.142650000000003     47.153800000000004
H      45.015349999999998     49.503749999999997     46.383499999999998
H      48.948449999999994     50.761150000000001     48.713499999999996
H      49.057549999999992     50.217449999999999     46.431300000000007
H      47.935549999999992     48.750650000000007     45.647199999999998
H      50.984650000000002     47.613050000000001     50.244699999999995
H      47.740150000000000     46.586750000000009     46.688299999999998
H      49.994850000000000     45.874250000000004     50.352800000000002
H      48.432249999999996     45.048349999999999     48.415400000000005
