40

C      49.694749999999992     48.640449999999994     47.920749999999991
C      49.923850000000002     49.309849999999997     49.253450000000001
C      45.661749999999998     51.037550000000003     47.340450000000004
C      45.689050000000002     51.425950000000000     48.689250000000001
C      48.779750000000000     49.166049999999998     47.007649999999998
C      49.014850000000003     50.231549999999999     49.777749999999997
C      46.683250000000001     50.163749999999993     46.841250000000002
C      46.800950000000000     51.214750000000002     49.649550000000005
C      47.782950000000000     49.936449999999994     47.696849999999998
C      47.949950000000001     50.684150000000002     48.970749999999995
C      50.506950000000003     47.632249999999999     47.564750000000004
C      51.367249999999999     46.960450000000002     48.659350000000003
C      51.339650000000006     47.561549999999997     49.926050000000004
C      50.789050000000003     48.742249999999999     50.319850000000002
C      44.585850000000001     51.710049999999995     46.513750000000002
C      43.382750000000001     52.029849999999996     47.097549999999998
C      43.119050000000001     52.125950000000003     48.559250000000006
C      44.293149999999997     51.986649999999997     49.152450000000002
C      50.250149999999998     46.755849999999995     46.388649999999998
C      50.983249999999998     45.561149999999998     46.312849999999997
C      51.946249999999992     45.172550000000001     47.221350000000001
C      52.391550000000009     45.968050000000005     48.415350000000004
C      48.658149999999999     48.340750000000000     45.838049999999996
C      49.276049999999998     47.202950000000001     45.375150000000005
C      53.035850000000003     44.002250000000004     47.071550000000002
H      49.011850000000003     50.383449999999996     50.901650000000004
H      46.717050000000000     49.632550000000002     45.970450000000000
H      46.780749999999998     51.441850000000002     50.678049999999999
H      51.813250000000004     46.941850000000002     50.754450000000006
H      50.878149999999998     48.899149999999999     51.553449999999998
H      44.514449999999997     52.074250000000006     45.374949999999998
H      42.540450000000000     52.552349999999990     46.611750000000001
H      42.427949999999996     52.704349999999998     49.059950000000001
H      44.726150000000004     52.392850000000010     50.089749999999995
H      50.709949999999999     44.811549999999997     45.548550000000006
H      53.572050000000004     45.953649999999996     48.967050000000000
H      47.725650000000002     48.132750000000001     45.367750000000001
H      48.867550000000001     46.755949999999999     44.446550000000002
H      52.415049999999994     43.295650000000002     47.734549999999999
O      53.376550000000009     43.392650000000003     46.090950000000007
