20

C      50.115949999999984     47.532849999999996     49.534599999999990
C      49.738549999999989     46.192250000000008     48.718400000000003
C      49.122450000000001     48.596350000000008     49.729699999999994
C      49.137949999999989     46.477250000000005     47.452100000000002
C      48.151150000000001     48.595650000000006     48.573999999999998
C      48.220950000000002     47.610650000000000     47.403499999999994
C      47.768850000000000     49.865750000000006     48.073800000000006
C      47.400049999999993     47.647150000000003     46.237200000000001
C      46.522149999999996     49.573250000000009     47.244799999999998
C      46.269349999999989     48.486250000000005     46.339600000000004
H      50.586050000000000     47.493450000000003     50.606099999999998
H      50.841350000000006     48.172350000000002     48.866299999999995
H      50.183549999999997     45.240850000000002     49.242599999999996
H      48.440649999999991     48.493850000000002     50.469499999999996
H      49.587549999999993     49.661850000000008     49.775499999999994
H      49.246449999999996     45.956450000000004     46.609200000000001
H      48.220849999999999     50.759149999999998     48.308800000000005
H      47.291950000000000     46.983550000000001     45.393900000000002
H      45.974249999999998     50.543349999999997     47.344400000000007
H      45.158649999999994     48.293750000000010     45.781000000000006
