22

C      49.482319999999987     48.399749999999997     50.018449999999987
C      49.387010000000004     46.866550000000004     49.743949999999998
C      49.075130000000001     49.370849999999990     48.823650000000001
C      47.900633999999997     46.410449999999997     49.278350000000003
C      47.900352999999996     48.634949999999989     48.030950000000004
C      47.627179999999996     47.217050000000000     48.027349999999998
C      47.138880000000015     49.583949999999987     47.258550000000000
C      46.918780000000012     46.900250000000000     46.881749999999997
C      46.592079999999996     49.110849999999999     45.973050000000001
C      46.353279999999998     47.685749999999999     45.758150000000001
H      50.604720000000000     48.745549999999994     49.995350000000002
H      49.213790000000003     48.448250000000002     50.982150000000004
H      49.648820000000001     46.136750000000006     50.580550000000002
H      50.069490000000002     46.386449999999996     48.890550000000005
H      50.058139999999995     49.563749999999999     48.205849999999998
H      48.635324999999995     50.377649999999988     49.072550000000007
H      47.207479999999990     46.543350000000004     50.106049999999996
H      47.782779999999988     45.296750000000003     49.079650000000001
H      46.935580000000002     50.703249999999997     47.630750000000006
H      46.219280000000012     46.083950000000002     46.751050000000006
H      46.201080000000005     50.026250000000005     45.368049999999997
H      45.395280000000000     47.688850000000002     45.017849999999996
