6

C      47.541799999999995     47.725849999999994     47.597199999999994
C      48.422599999999996     48.138249999999999     48.568880000000007
H      46.895000000000003     48.197349999999986     46.877679999999998
H      47.661200000000001     46.701549999999997     47.466990000000003
H      48.338500000000003     49.298450000000003     48.577420000000004
H      49.104999999999997     47.421549999999996     49.122320000000002
