6

C      47.727249999999998     47.610699999999994     48.406249999999986
C      48.218350000000008     48.460600000000007     47.481750000000005
H      47.244650000000000     46.739100000000001     48.251350000000002
H      47.784550000000003     47.869399999999999     49.531850000000006
H      48.619250000000001     48.232700000000001     46.468149999999994
H      48.755350000000000     49.260899999999999     47.786150000000006
