18

C      48.379799999999996     49.616999999999990     45.628049999999995
C      48.097200000000001     49.786500000000004     47.073049999999995
C      48.625399999999999     48.954099999999997     48.067650000000000
C      48.164699999999996     47.561900000000009     48.175449999999998
C      48.470900000000000     49.444699999999997     49.413750000000007
C      47.737899999999996     46.600600000000000     46.999350000000007
C      47.853099999999998     48.480400000000003     50.188249999999996
C      47.820799999999991     47.247399999999999     49.439450000000008
H      46.571100000000001     46.585300000000004     46.828550000000007
H      48.657600000000002     48.291799999999995     45.522250000000000
H      47.626899999999992     50.247399999999999     44.962249999999997
H      47.090099999999993     50.080700000000007     47.548050000000003
H      49.428899999999999     50.065799999999996     45.434849999999997
H      48.885300000000001     50.499899999999997     49.593150000000001
H      47.948700000000002     46.998199999999997     45.944249999999997
H      47.154899999999998     48.648099999999999     51.037750000000003
H      47.129300000000001     46.431700000000006     49.872150000000005
H      48.229199999999992     45.500100000000003     47.152349999999998
