12

C      47.880349999999986     47.737499999999990     48.727749999999993
C      46.580249999999992     47.899699999999996     47.909949999999995
C      49.279049999999998     48.029100000000000     46.585750000000004
C      49.062249999999992     47.964299999999994     48.189549999999997
H      45.695949999999996     46.973100000000002     48.027149999999999
H      46.084549999999993     48.786699999999996     48.635050000000000
H      47.398949999999999     47.387900000000002     49.696550000000002
H      46.760850000000005     48.519599999999997     46.861350000000002
H      49.387149999999991     49.026899999999998     46.303449999999998
H      48.468850000000003     47.415199999999999     46.327150000000003
H      49.817149999999998     47.434399999999997     48.887749999999997
H      50.304050000000004     47.514899999999997     46.387550000000005
