16

C      45.709849999999996     48.635999999999996     48.018699999999988
C      47.383250000000004     46.378399999999999     46.710700000000003
C      47.033450000000002     48.370599999999996     48.283799999999999
C      47.954650000000001     47.224500000000006     47.710700000000003
C      47.761350000000007     49.383300000000006     49.098399999999998
C      49.303950000000000     46.972700000000003     48.282800000000009
C      49.129149999999996     49.309500000000000     49.076300000000003
C      49.796949999999995     48.008300000000006     48.932900000000004
H      46.264650000000003     46.404899999999998     46.449399999999997
H      45.124750000000006     49.491500000000002     48.455600000000004
H      45.288950000000000     48.095300000000009     47.300200000000004
H      48.246549999999999     45.653000000000006     46.278999999999996
H      47.327849999999998     50.346999999999994     49.192400000000006
H      49.636449999999996     45.975099999999998     48.282899999999998
H      49.870549999999994     50.061199999999999     49.369000000000000
H      50.875249999999994     47.872900000000001     49.721000000000004
