17

C      49.544314999999990     49.100749999999991     49.328099999999992
C      47.421514999999985     46.677250000000001     49.967500000000008
C      48.754914999999997     48.210549999999998     48.381000000000000
C      47.810914999999994     47.209249999999997     48.624700000000004
C      48.624414999999985     48.985950000000003     47.170900000000003
C      46.709814999999992     46.953749999999999     47.746400000000001
C      47.693814999999987     48.644350000000003     46.072700000000005
C      46.709914999999995     47.677149999999997     46.528700000000001
H      49.214014999999989     49.859450000000010     50.148200000000003
H      50.142185999999995     48.437150000000003     49.954999999999991
H      50.377885000000006     49.320850000000007     48.581400000000002
H      48.004314999999991     47.080050000000000     50.740500000000004
H      46.585714999999993     46.024749999999997     50.094999999999992
H      49.301614999999998     49.975250000000003     46.893900000000002
H      46.178614999999994     46.321950000000001     48.259599999999999
H      47.747314999999986     49.252750000000006     45.259499999999996
H      45.622114999999994     47.354349999999997     46.140300000000003
