22

C      49.957999999999991     49.270999999999994     47.888599999999990
C      50.985699999999994     49.358900000000006     48.661599999999993
C      49.615700000000004     47.876900000000006     47.403599999999997
C      47.427599999999998     49.586200000000005     49.182599999999994
C      48.070899999999995     47.612300000000005     47.577799999999996
C      47.165599999999998     48.431300000000000     48.219799999999992
C      47.813499999999998     46.600300000000004     46.693999999999996
C      45.808300000000003     47.981999999999999     48.318299999999994
C      46.441800000000001     46.159600000000005     46.880099999999999
C      45.441299999999998     46.820100000000004     47.611999999999995
H      47.412800000000004     50.605300000000000     48.803799999999995
H      46.040900000000001     45.394700000000000     46.230699999999999
H      49.267499999999998     50.128200000000000     47.638499999999993
H      51.596400000000003     48.376800000000003     48.864899999999992
H      51.428399999999996     50.095500000000001     49.419299999999993
H      50.217399999999998     47.047400000000003     47.971999999999994
H      49.840999999999994     48.068500000000000     46.234499999999997
H      48.215100000000000     49.942200000000000     49.988900000000001
H      46.714500000000001     49.210000000000001     50.071899999999999
H      48.556600000000003     45.887500000000003     45.928100000000001
H      44.983800000000002     48.359800000000000     48.882499999999993
H      44.403599999999997     46.359900000000003     47.605300000000000
