6

C      47.729599999999998     48.311899999999994     48.486999999999995
C      48.463700000000003     47.997299999999996     47.345200000000006
H      46.573599999999999     48.469899999999996     48.234700000000004
H      48.013300000000001     48.298800000000000     49.515799999999999
H      49.426400000000001     47.530100000000004     47.663700000000006
H      47.871399999999994     47.855400000000003     46.484200000000001
