54

C      48.234399999999994     48.585999999999991     49.304449999999996
C      49.129899999999992     49.626000000000005     48.956850000000003
C      45.343499999999992     46.853600000000000     44.232149999999997
C      47.400099999999995     48.154200000000003     48.233150000000002
C      48.825999999999993     50.327299999999994     47.614049999999999
C      44.351399999999998     46.848200000000006     43.257649999999998
C      47.505600000000001     48.416100000000000     46.864049999999999
C      46.601299999999995     47.698399999999992     45.992249999999999
C      48.486800000000002     47.933800000000005     50.587549999999993
C      49.261200000000002     48.342799999999997     51.574650000000005
C      50.083100000000002     49.614199999999997     51.363050000000001
C      50.111999999999995     49.998599999999996     49.874250000000004
C      47.869599999999991     46.604699999999994     50.673850000000002
C      48.549299999999988     45.717399999999998     51.641750000000002
C      49.032600000000002     46.463499999999996     52.726050000000001
C      46.719899999999996     46.294499999999999     49.828749999999999
C      46.479100000000003     47.099800000000002     48.643749999999997
C      51.199600000000004     50.365499999999997     51.972149999999999
C      52.094399999999993     51.316199999999995     51.481749999999998
C      51.574299999999994     52.048000000000002     50.399550000000005
C      50.683799999999991     51.310199999999995     49.705249999999992
C      49.226399999999998     51.682400000000001     47.530749999999998
C      50.112199999999987     52.076800000000006     48.618949999999998
C      49.103099999999998     44.356200000000001     51.537849999999992
C      49.557999999999993     43.314999999999998     52.561149999999998
C      45.859099999999998     45.484200000000001     44.216749999999998
C      46.805799999999991     45.479100000000003     43.175849999999997
C      48.073599999999999     49.737700000000004     46.662549999999996
C      48.597200000000001     52.911199999999994     46.735050000000001
C      43.431699999999992     47.969099999999997     43.258749999999999
H      44.297799999999995     45.951800000000006     42.457349999999998
H      46.525199999999998     46.771100000000004     46.445949999999996
H      49.367499999999993     45.916700000000006     53.791449999999998
H      46.366500000000002     45.266700000000000     49.750349999999997
H      45.393599999999992     47.010300000000001     48.020350000000001
H      53.169200000000004     51.261499999999998     51.749549999999999
H      51.824500000000000     53.037999999999997     50.150149999999996
H      49.867599999999996     53.173500000000004     48.441150000000000
H      50.739499999999992     43.486099999999993     52.384349999999998
H      49.462499999999991     42.275999999999996     52.366050000000001
H      49.803799999999995     43.367599999999996     53.557749999999999
H      45.704200000000000     44.613699999999994     44.863749999999996
H      46.470399999999998     46.025800000000004     42.208550000000002
H      47.501499999999993     44.695599999999999     42.946950000000001
H      51.127299999999991     49.472700000000003     53.535350000000001
H      47.962499999999991     50.120099999999994     45.547150000000002
H      47.532600000000002     52.770499999999998     46.888249999999999
H      48.754499999999993     53.724000000000004     46.246449999999996
H      43.489699999999999     48.751599999999996     43.948149999999998
H      42.830799999999996     48.177499999999995     42.323850000000000
N      45.886700000000005     47.865899999999996     44.935449999999996
N      49.505099999999999     47.710399999999993     52.744450000000001
O      48.564300000000003     43.716799999999992     50.669749999999993
O      51.622799999999998     50.196699999999993     53.316649999999996
