16

C      48.531949999999988     49.737949999999998     46.133699999999990
C      46.854050000000001     47.133949999999992     46.270400000000002
C      48.362250000000003     48.905149999999999     47.296399999999998
C      47.898650000000004     47.492349999999995     47.211999999999996
C      48.805250000000001     49.324449999999992     48.671600000000005
C      48.132949999999994     46.567450000000001     48.339199999999998
C      49.062749999999994     48.309649999999998     49.669300000000000
C      48.419849999999997     46.957149999999992     49.628999999999998
H      48.079849999999993     49.058050000000001     45.353000000000002
H      49.315849999999998     50.368050000000004     46.300400000000003
H      46.112449999999995     47.862149999999993     46.350600000000007
H      46.461650000000006     46.195850000000000     45.828400000000002
H      48.451750000000004     50.283049999999996     49.288499999999999
H      48.951049999999995     45.631949999999996     48.457299999999996
H      49.887550000000005     48.230550000000001     50.569799999999994
H      48.803049999999999     46.661750000000005     50.646999999999998
