16

C      47.032749999999993     47.066049999999990     50.234499999999990
C      48.455250000000007     49.581550000000000     49.399999999999999
C      47.672049999999999     47.442949999999996     49.042099999999998
C      48.204550000000012     48.707850000000001     48.275599999999997
C      48.208750000000009     46.348250000000000     48.104500000000002
C      48.757750000000001     48.819150000000000     46.904600000000002
C      48.539450000000002     46.454349999999998     46.812300000000000
C      48.595350000000010     47.677150000000005     46.117699999999999
H      48.056350000000009     49.479649999999999     50.405100000000004
H      47.074050000000000     48.054349999999992     50.907899999999998
H      47.048850000000002     46.151549999999993     50.655500000000004
H      48.613650000000007     50.691549999999999     49.281199999999998
H      48.241750000000010     45.308450000000001     48.426099999999998
H      48.783750000000012     49.845649999999999     46.404499999999999
H      48.949250000000006     45.431849999999997     46.419699999999999
H      48.967250000000007     47.785649999999997     45.092100000000002
