17

C      46.781949999999995     48.606259999999992     49.859349999999992
C      49.653950000000009     47.407884999999993     49.545850000000002
C      47.111850000000004     47.295195999999990     49.104050000000001
C      48.584249999999997     47.045746799999989     48.741849999999999
C      46.258049999999997     46.892910000000015     48.018149999999999
C      48.924450000000007     46.622410000000016     47.436250000000001
C      46.617950000000008     46.696309999999997     46.649450000000002
C      48.008550000000000     46.589910000000017     46.369950000000003
H      45.807150000000007     48.442089999999993     50.460749999999997
H      45.312449999999998     47.419891999999990     48.366350000000004
H      47.456150000000008     48.471699999999998     50.600749999999998
H      46.878950000000003     49.617289999999997     49.104250000000000
H      49.413550000000001     47.733001999999999     50.641449999999999
H      50.687550000000002     47.465935999999999     49.975050000000003
H      49.920749999999998     46.722809999999996     47.273550000000000
H      46.030349999999999     46.546609999999987     45.751249999999999
H      48.326250000000002     46.382710000000003     45.358550000000001
