15

C      49.333849999999998     49.100650000000002     49.308899999999994
C      48.507350000000002     48.054250000000003     48.559500000000000
C      48.367049999999999     47.808450000000001     47.200299999999999
C      47.713149999999999     47.196150000000010     49.361600000000010
C      47.476750000000003     46.832150000000006     46.574200000000005
C      46.612950000000005     46.457349999999998     48.925200000000004
C      46.420850000000002     46.555950000000003     47.530200000000008
H      49.345250000000000     49.220550000000010     50.433999999999997
H      47.620750000000001     46.573550000000004     45.566000000000003
H      48.866650000000000     50.147449999999999     49.212600000000009
H      50.452649999999998     49.192650000000008     49.231800000000007
H      47.750950000000003     47.054250000000003     50.426900000000003
H      48.815950000000001     48.425550000000008     46.442300000000003
H      45.952850000000005     46.029649999999997     49.683800000000005
H      45.547350000000002     45.852550000000001     46.884000000000000
