6

C      48.296299999999988     48.417799999999993     48.159149999999997
C      47.546399999999991     47.213799999999992     47.874850000000002
H      48.766000000000005     48.492499999999993     49.053549999999994
H      48.094499999999996     49.324500000000000     47.723149999999997
H      47.233999999999995     46.675500000000000     46.914250000000003
H      47.480400000000003     47.041799999999995     49.085749999999997
