17

C      46.610749999999996     47.482949999999995     45.938899999999990
C      48.932750000000006     49.504950000000001     46.372000000000000
C      47.531550000000003     47.373150000000003     47.068100000000001
C      48.365950000000005     48.532950000000000     47.391700000000000
C      47.319049999999997     46.468350000000001     48.284099999999995
C      49.102049999999998     48.683050000000001     48.569199999999995
C      47.820250000000009     46.833449999999999     49.438599999999994
C      48.816750000000006     47.848150000000004     49.650499999999994
H      49.550050000000006     48.967050000000000     45.445700000000002
H      46.330850000000005     48.404049999999998     45.335999999999999
H      46.196350000000002     46.816650000000003     45.228099999999998
H      48.469850000000001     50.165050000000001     45.539000000000001
H      49.486150000000002     50.343550000000000     46.815100000000001
H      46.608950000000000     45.656450000000000     48.156400000000005
H      49.803649999999998     49.554649999999995     48.749700000000004
H      47.625449999999994     45.980650000000004     50.092799999999997
H      49.147950000000002     47.930850000000007     50.771900000000002
