22

C      48.177650000000000     45.180549999999997     47.795499999999990
C      49.423950000000005     45.764749999999992     48.015600000000006
C      46.836950000000002     46.254349999999988     47.993200000000002
C      49.831150000000008     47.276249999999990     48.122399999999999
C      47.184750000000008     47.680449999999993     47.712199999999996
C      48.601450000000000     48.169249999999991     48.120400000000004
C      46.167850000000001     48.718549999999993     47.815700000000007
C      48.718850000000003     49.428949999999986     48.792699999999996
C      46.607250000000008     50.038049999999998     48.141499999999994
C      47.752049999999997     50.503050000000002     48.702000000000012
H      48.016050000000007     44.388350000000003     48.565100000000001
H      48.248149999999995     44.850049999999996     46.770899999999997
H      50.191449999999989     45.084249999999997     47.340999999999994
H      49.732450000000000     45.294949999999986     49.229100000000003
H      46.363250000000008     46.182049999999990     48.897400000000005
H      45.868650000000002     46.013949999999994     47.531999999999996
H      50.563749999999999     47.358149999999995     49.021700000000010
H      50.769850000000005     47.667149999999992     47.380899999999997
H      45.230149999999995     48.347349999999992     47.561999999999998
H      49.678150000000002     49.684049999999999     49.209500000000006
H      45.980550000000008     50.802049999999994     48.210200000000000
H      48.009650000000008     51.611649999999997     48.820200000000014
