20

C      45.839099999999995     50.414800000000000     48.015949999999989
C      46.341300000000004     45.812999999999995     47.488749999999996
C      46.305499999999995     49.140599999999999     47.641750000000002
C      46.757199999999997     46.478299999999997     48.595150000000004
C      47.568300000000008     48.829699999999995     48.291550000000001
C      47.872900000000001     47.469900000000003     48.653250000000000
C      48.644400000000005     49.789300000000004     48.430650000000000
C      49.106600000000000     46.943000000000005     49.073049999999995
C      49.917200000000008     49.185099999999998     48.598249999999993
C      50.147300000000001     47.735999999999997     48.844250000000002
H      46.614800000000002     51.253200000000000     48.144250000000000
H      44.812399999999997     50.524200000000000     48.209450000000004
H      46.887200000000007     45.915200000000006     46.423749999999998
H      45.665300000000002     44.746800000000000     47.760649999999998
H      45.499200000000002     48.463000000000001     47.481150000000000
H      46.335899999999995     46.179700000000004     49.576250000000002
H      48.472200000000001     50.934599999999996     48.335550000000012
H      49.369100000000003     45.869800000000005     49.157450000000011
H      50.801600000000008     49.826200000000007     48.347949999999997
H      51.187600000000003     47.228800000000000     48.794150000000002
