18

C      49.574949999999994     47.065529999999995     46.694699999999990
C      49.269750000000002     47.022430000000000     49.717799999999997
C      48.505749999999999     48.058660000000003     47.334399999999988
C      48.513350000000003     48.060839999999999     48.790899999999993
C      47.342750000000002     48.424499999999995     46.702500000000001
C      47.637149999999998     49.104469999999992     49.391499999999994
C      46.251950000000001     49.212269999999990     47.197599999999994
C      46.496450000000003     49.427639999999997     48.564099999999996
H      50.644250000000000     47.390330000000006     47.343599999999995
H      49.538950000000000     46.942880000000002     45.626199999999997
H      49.313549999999999     46.065390000000008     47.017599999999995
H      49.733750000000001     46.209779999999995     49.177199999999999
H      50.099750000000000     47.618440000000007     50.118399999999994
H      46.968550000000000     47.981139999999996     45.678099999999993
H      47.523150000000001     49.467039999999997     50.373800000000003
H      45.355750000000000     49.744000000000000     46.623999999999995
H      45.605850000000004     49.934609999999992     49.076899999999995
H      48.486449999999998     46.659660000000002     50.232900000000001
