6

C      48.508099999999992     47.752749999999985     47.554599999999994
C      47.619799999999998     48.405649999999994     48.376700000000007
H      49.266400000000004     47.044049999999999     47.961800000000004
H      48.481899999999996     47.863249999999994     46.534500000000001
H      46.733599999999996     48.955950000000001     48.238599999999998
H      47.697599999999994     48.034949999999995     49.465499999999999
