42

C      47.544251019999990     47.348149999999990     48.362399999999994
C      46.488555000000005     46.799250000000001     47.692000000000000
C      48.623874999999984     46.594549999999998     48.893500000000003
C      46.514255000000006     45.407449999999997     47.255299999999998
C      49.567184999999995     44.400549999999996     49.071900000000007
C      48.361778000000001     45.129249999999999     48.726199999999999
C      47.361554999999996     44.559250000000006     47.945799999999998
C      47.543095049999991     48.882550000000009     48.491199999999999
C      46.393455000000003     49.461650000000006     47.857900000000001
C      45.172055000000000     49.028750000000002     46.933799999999998
C      45.325654999999983     47.716149999999999     46.881900000000002
C      48.752424999999988     49.600650000000002     48.811300000000003
C      48.667874999999995     51.183250000000001     48.746599999999994
C      47.428955000000016     51.742850000000004     48.376700000000007
C      46.453755000000001     50.887850000000000     47.738300000000002
C      49.775434999999987     48.885550000000009     49.347400000000000
C      49.665014999999997     47.402450000000002     49.365100000000005
C      50.751684999999995     46.544950000000000     49.928699999999999
C      50.538004999999998     45.220650000000006     49.604999999999997
C      45.243854999999996     44.986450000000005     46.469299999999997
C      44.105355000000017     45.895250000000004     47.051000000000002
C      44.098054999999988     47.170249999999996     46.120300000000000
C      52.105594999999994     46.976050000000001     50.382899999999999
H      47.669166999999987     43.462649999999996     47.764100000000006
H      49.454184999999981     52.116749999999996     48.998200000000004
H      47.403954999999996     52.802350000000004     48.093300000000006
H      45.553555000000003     51.305549999999997     47.243900000000004
H      51.361694999999997     44.404250000000005     50.139800000000001
H      49.573274999999995     43.197649999999996     49.103800000000000
H      45.464754999999997     44.745649999999998     45.494000000000007
H      45.060254999999998     44.006150000000005     46.787799999999997
H      43.061255000000003     45.442750000000004     46.993000000000002
H      44.237755000000007     46.289950000000005     48.109500000000004
H      44.344055000000012     46.821349999999995     44.962899999999998
H      43.263854999999992     47.805149999999998     46.404600000000002
H      44.340154999999996     49.666750000000008     45.220000000000006
H      51.249024999999989     49.681750000000008     50.022600000000004
H      52.938744999999997     46.605149999999995     51.037100000000002
H      52.723524999999995     47.206649999999996     49.314200000000007
H      52.160604999999990     48.007149999999996     50.553699999999999
O      44.447954999999993     49.856549999999999     46.158900000000003
O      51.054964999999996     49.295249999999996     49.042200000000001
