6

C      48.526474999999984     47.862150000000000     47.732899999999994
C      47.320074999999996     48.141750000000009     47.760399999999997
H      49.006874999999994     48.782850000000003     47.669499999999999
H      49.368875000000003     47.125650000000000     47.455500000000001
H      46.925084999999996     48.888050000000000     48.544499999999999
H      46.631124999999997     47.111950000000000     47.507400000000004
