6

C      48.680249999999994     48.050024999999991     48.062550000000002
C      47.314450000000001     48.097485000000006     47.761350000000007
H      48.986050000000006     48.714685000000003     48.801249999999996
H      49.276049999999998     47.595165000000009     47.198750000000004
H      46.723950000000002     48.370975000000001     48.522950000000009
H      46.965550000000000     47.285314999999997     47.318650000000005
