6

C      47.437799999999996     47.966099999999990     47.585599999999992
C      48.606400000000001     47.880800000000001     48.189700000000002
H      47.405300000000004     48.952600000000004     47.071399999999997
H      46.472400000000000     47.224999999999994     47.689599999999999
H      48.591799999999999     47.047399999999996     48.928600000000003
H      49.527600000000000     48.396299999999997     47.726299999999995
