5

C      48.156099999999995     47.662649999999999     48.023550000000000
H      47.165500000000002     47.609550000000006     47.910449999999997
H      48.088700000000003     48.645249999999997     48.006349999999998
H      48.834499999999998     47.610550000000003     48.934849999999997
H      48.695000000000000     47.354750000000003     47.065150000000003
