21

C      47.339249999999993     49.169849999999997     45.483739999999997
C      48.663650000000011     48.711550000000003     46.298240000000000
C      47.614550000000001     46.048150000000007     47.623801000000007
C      48.790950000000002     48.574150000000003     47.800270000000005
C      48.149650000000001     47.400050000000007     48.323709999999998
C      49.089150000000011     49.641249999999999     48.706730000000000
C      47.891250000000007     47.321050000000000     49.705900000000007
C      49.048450000000010     49.527249999999995     50.132020000000011
C      48.470150000000011     48.315049999999999     50.512260000000005
H      47.982950000000010     46.219949999999997     46.543839999999996
H      47.169050000000006     50.145150000000001     45.712640000000000
H      47.656250000000007     48.749449999999996     44.317339999999994
H      46.556050000000006     48.504149999999996     45.632640000000002
H      48.089450000000006     47.831750000000000     46.380339999999997
H      49.450150000000001     49.057850000000002     45.936740000000007
H      46.549849999999999     46.235349999999997     47.073431000000006
H      47.412950000000002     45.275450000000006     48.389470000000010
H      48.923949999999998     50.724549999999994     48.229630000000007
H      47.147350000000010     46.301850000000002     50.060190000000006
H      48.872250000000001     50.258750000000006     50.826860000000003
H      48.171350000000011     48.284750000000003     51.682660000000006
