18

C      48.807649999999995     46.490599999999993     46.372199999999992
C      49.121149999999986     46.517899999999997     49.515099999999990
C      48.141549999999995     47.556100000000001     47.273999999999987
C      48.412949999999995     47.626400000000004     48.674199999999999
C      47.252749999999992     48.502600000000001     46.632999999999996
C      48.238950000000003     48.603499999999997     49.633499999999998
C      46.945350000000005     49.426800000000000     47.667499999999990
C      47.419650000000004     49.514300000000006     49.078299999999984
H      48.259950000000003     45.519700000000000     46.339199999999991
H      48.461849999999998     45.613799999999998     49.413899999999998
H      50.086449999999999     46.550200000000004     49.004099999999994
H      46.526049999999998     48.315100000000001     45.835999999999999
H      48.576650000000001     48.766900000000007     50.593299999999999
H      45.913550000000001     49.622600000000006     47.411099999999990
H      47.087350000000001     50.480300000000000     49.655400000000000
H      49.926149999999993     46.358699999999999     46.537999999999997
H      49.306449999999998     46.688500000000005     50.485299999999995
H      48.999849999999995     46.893799999999999     45.406700000000001
