6

C      47.865949999999998     47.969850000000001     48.737449999999995
C      48.039549999999991     47.939050000000009     47.479950000000002
H      47.596649999999997     47.006749999999997     49.184349999999995
H      47.777950000000004     49.073049999999995     49.051749999999998
H      48.126350000000002     48.759450000000001     46.815650000000005
H      48.403350000000003     46.926950000000005     47.036050000000003
