19

C      48.099999999999994     47.154837499999999     46.319399999999995
C      50.178699999999999     47.703537499999996     48.346900000000005
C      47.859100000000005     47.849637500000000     47.650300000000001
C      48.858600000000003     48.492237500000002     48.601399999999998
C      46.494900000000001     48.279737499999996     47.905100000000004
C      48.482400000000005     49.602637500000000     49.387900000000002
C      46.000100000000003     48.953737499999988     49.065700000000007
C      46.999100000000006     49.729737499999999     49.678300000000000
H      47.627200000000002     45.313337499999989     46.083100000000002
H      49.617300000000000     46.908737500000001     47.898400000000002
H      47.104300000000002     47.399337500000001     45.717100000000002
H      49.211199999999998     47.415737499999992     46.142700000000005
H      50.943700000000000     47.612837499999998     49.149799999999999
H      50.716299999999997     48.158837499999990     47.429600000000001
H      45.761800000000001     47.974837499999992     47.155200000000008
H      49.232800000000005     50.216937500000000     49.761200000000002
H      45.056300000000000     49.263337499999992     49.203500000000005
H      47.002099999999999     50.686662500000011     50.282899999999998
O      48.291599999999995     45.732737499999999     46.525000000000006
