9

C      47.231299999999990     47.474149999999995     48.558399999999992
C      47.125299999999996     48.538549999999994     47.555000000000007
C      48.569699999999997     48.640549999999998     46.927599999999998
H      47.621200000000002     47.583250000000000     49.602000000000004
H      47.507300000000001     46.375949999999996     48.382800000000003
H      46.814700000000002     49.434249999999999     48.221199999999996
H      48.353799999999993     49.624050000000004     46.540099999999995
H      49.185299999999998     48.674050000000001     47.669100000000000
H      48.848799999999997     47.584550000000000     46.397999999999996
