38

C      46.958099999999988     48.776299999999992     47.249544999999998
C      50.437300000000000     48.845500000000001     46.728615000000005
C      47.950700000000005     48.874300000000005     46.056345000000007
C      49.309899999999992     49.290200000000013     45.800224999999998
C      47.254899999999999     48.834100000000007     44.679675000000003
C      49.990399999999987     48.961300000000008     44.606575000000007
C      47.981199999999994     48.557100000000005     43.551905000000005
C      49.412900000000000     48.375200000000007     43.601325000000003
C      45.554800000000000     51.649300000000011     47.502835000000005
C      44.708099999999995     45.186400000000006     52.298734999999994
C      45.768200000000000     49.745600000000010     47.646835000000010
C      44.736199999999997     45.984600000000000     51.246835000000004
C      45.568799999999996     48.983600000000010     48.994735000000006
C      45.169899999999998     47.406600000000012     50.726635000000002
C      45.314899999999994     47.688900000000004     49.325035000000000
C      45.235599999999998     48.356700000000004     51.766135000000006
C      45.541300000000000     49.927700000000002     50.117334999999997
C      45.375099999999996     49.725800000000007     51.524135000000001
H      47.674799999999998     48.808900000000008     48.201234999999997
H      51.573000000000000     49.125800000000012     46.289365000000004
H      50.520699999999998     49.779000000000011     47.332234999999997
H      46.109800000000000     48.679900000000004     44.739525000000000
H      51.144600000000004     49.193400000000011     44.761705000000006
H      47.346899999999998     48.124500000000012     42.757365000000007
H      50.217999999999996     47.974100000000007     42.882625000000004
H      50.606999999999992     47.748200000000011     46.832965000000002
H      46.351999999999997     48.040000000000006     47.110065000000006
H      44.841099999999997     49.695700000000002     47.155405000000002
H      45.482199999999999     51.852200000000011     46.463945000000010
H      44.470199999999998     44.088099999999997     52.309134999999998
H      44.731099999999998     45.749000000000009     53.242634999999993
H      44.815500000000000     51.663300000000007     48.384434999999996
H      46.695599999999999     51.911900000000003     47.713835000000003
H      44.427000000000000     45.594800000000006     50.183235000000010
H      45.049299999999995     47.023200000000003     48.449534999999997
H      45.225800000000000     47.954700000000003     52.984935000000007
H      46.138199999999998     50.854100000000003     49.877735000000001
H      45.526699999999998     50.304200000000009     52.390034999999997
