6

C      48.041199999999989     47.527549999999991     48.418499999999995
C      47.720099999999995     48.519549999999995     47.548000000000002
H      47.708300000000001     47.780450000000002     49.457599999999999
H      48.836199999999998     46.596549999999993     48.308000000000007
H      47.163800000000002     49.403450000000007     47.978999999999999
H      48.134000000000007     48.602050000000006     46.542400000000001
