20

C      45.908099999999990     48.338649999999994     46.731399999999994
C      45.045599999999993     47.487349999999999     46.378700000000002
C      46.890500000000003     49.168950000000002     47.090700000000005
C      47.483099999999993     46.636049999999997     48.891500000000001
C      48.274000000000001     48.703949999999999     47.383699999999997
C      48.527500000000003     47.577649999999998     48.201500000000003
C      49.469399999999993     49.380349999999993     46.806099999999994
C      49.841899999999995     47.246749999999999     48.413899999999991
C      50.736199999999997     49.170749999999998     46.943899999999999
C      50.752799999999993     48.034750000000003     47.806199999999997
H      45.506399999999999     46.535550000000001     46.307200000000002
H      47.952600000000004     46.740949999999998     49.949300000000001
H      47.045500000000004     50.244950000000003     46.609900000000003
H      44.093199999999996     47.488149999999997     47.091199999999994
H      47.621899999999997     45.755049999999997     48.280499999999996
H      46.455900000000000     47.176850000000002     48.790100000000002
H      49.140799999999999     50.035349999999994     46.050699999999999
H      50.178000000000011     46.169850000000004     48.874500000000005
H      51.562200000000004     49.803750000000008     46.776999999999994
H      51.906800000000004     47.909649999999999     47.971299999999999
