18

C      49.736499999999999     49.769099999999995     48.474649999999990
C      49.307000000000002     49.271900000000002     49.789450000000002
C      48.147300000000001     48.448800000000006     49.894449999999992
C      49.246099999999998     49.299400000000006     47.241849999999999
C      47.551500000000004     48.030400000000000     48.687150000000003
C      48.079999999999998     48.536699999999996     47.263949999999994
C      46.438000000000002     47.134799999999998     48.712350000000001
C      47.176299999999998     48.104900000000001     46.338449999999995
C      46.055599999999998     46.295500000000004     47.564650000000000
C      46.001400000000004     47.277699999999996     46.457549999999998
H      47.476500000000001     48.208799999999997     50.702449999999999
H      50.480400000000003     50.547200000000004     48.500850000000000
H      49.290099999999995     49.906700000000001     50.626949999999994
H      49.362899999999996     49.517399999999995     46.217950000000002
H      45.990000000000009     46.997699999999995     49.813249999999996
H      47.329400000000007     48.362700000000004     45.297550000000001
H      46.785700000000006     45.452799999999996     47.708550000000002
H      45.519599999999997     47.216499999999996     45.504750000000001
