6

C      48.244349999999997     47.885499999999986     47.758399999999995
C      47.954050000000002     48.456500000000005     48.919899999999998
H      48.695550000000004     48.143699999999995     46.432900000000004
H      47.764450000000004     47.032600000000002     47.204500000000010
H      48.536049999999996     48.967399999999998     49.567099999999996
H      47.304449999999996     47.958399999999997     49.531400000000005
