51

C      47.190549999999995     45.346349999999987     48.865349999999992
C      48.277349999999998     45.475650000000002     47.846150000000002
C      47.354849999999999     45.490650000000002     43.855049999999999
C      45.934049999999999     45.380549999999999     48.257550000000002
C      47.995150000000002     45.313350000000000     46.466249999999995
C      48.763550000000009     45.770650000000003     44.056750000000001
C      46.264249999999997     44.995549999999994     44.633950000000006
C      45.512149999999998     45.289349999999999     47.029149999999994
C      46.563049999999997     45.265450000000001     46.066949999999999
C      47.364049999999992     45.211250000000007     50.334650000000003
C      48.777650000000008     45.717849999999999     50.820050000000002
C      49.824150000000003     45.693050000000014     49.859749999999998
C      49.542549999999999     45.404949999999999     48.548049999999996
C      46.156349999999996     45.095450000000000     51.032549999999993
C      46.292349999999999     45.423350000000013     52.502350000000000
C      47.475549999999998     45.575850000000003     53.089450000000006
C      48.702149999999989     45.383350000000007     52.201050000000002
C      50.697049999999997     45.256749999999997     47.642249999999997
C      49.979950000000002     45.786349999999999     53.039350000000006
C      46.703949999999999     49.092650000000006     44.027849999999994
C      49.690049999999999     46.841650000000001     44.403550000000003
C      47.693049999999999     48.438550000000006     44.766449999999999
C      49.140650000000001     48.192549999999997     44.524149999999999
C      46.919849999999997     50.127850000000009     42.972749999999998
C      49.789149999999999     48.798550000000006     43.405049999999996
C      48.120549999999994     50.719850000000008     42.591150000000006
C      49.302549999999997     50.195149999999998     43.167650000000002
H      46.871350000000000     45.559650000000005     42.909050000000001
H      45.049250000000001     45.601550000000003     48.922649999999997
H      49.251750000000001     44.927350000000004     43.628949999999996
H      45.206150000000001     44.606350000000006     44.179650000000002
H      50.869749999999996     45.698750000000004     50.304350000000007
H      45.267949999999999     44.711550000000003     50.493850000000002
H      47.662450000000000     45.674149999999997     54.056750000000001
H      50.907849999999996     46.160250000000005     47.022249999999993
H      44.569550000000000     44.913449999999997     52.327249999999999
H      49.573349999999998     45.887050000000002     54.000350000000005
H      50.461349999999996     44.919550000000001     53.722850000000001
H      50.617850000000004     46.745149999999995     52.905149999999999
H      44.362850000000002     45.293850000000006     46.787050000000001
H      47.406549999999996     47.856350000000006     45.797050000000006
H      45.677549999999997     49.140349999999998     44.541649999999997
H      50.632149999999996     46.746350000000007     43.538850000000004
H      50.297950000000000     46.536750000000012     45.426250000000003
H      45.980750000000000     50.117550000000008     42.602849999999997
H      50.618949999999998     48.614249999999998     42.832450000000001
H      48.086849999999998     51.497550000000004     41.943249999999999
H      50.406349999999989     50.562950000000001     42.998049999999999
O      51.637149999999998     44.502449999999996     47.583350000000003
O      48.865049999999997     44.964150000000004     45.494549999999997
O      45.008550000000000     45.446450000000013     53.113750000000003
