18

C      48.178599999999996     47.883294999999990     50.510199999999990
C      46.585700000000003     49.344312000000009     47.972499999999997
C      48.417000000000002     47.780594999999998     48.926400000000001
C      48.033300000000011     48.824895000000005     48.017399999999995
C      49.203500000000005     46.704595000000005     48.308999999999997
C      48.531300000000002     49.194056000000010     46.680999999999997
C      49.439200000000000     46.931194999999995     47.030299999999997
C      48.969600000000000     47.890094999999995     46.117799999999995
H      47.556200000000004     46.820095000000002     50.797799999999995
H      46.791400000000010     50.278304999999996     47.235199999999992
H      49.245300000000000     47.630495000000003     50.947800000000001
H      45.789400000000001     48.626394999999995     48.020200000000003
H      46.292800000000000     49.585753000000004     48.916699999999992
H      49.535600000000002     45.721695000000004     48.897300000000001
H      48.430300000000003     49.677283000000003     45.559699999999999
H      50.210599999999999     46.299195000000005     46.457699999999996
H      49.234400000000008     47.600995000000005     45.052199999999999
H      47.403100000000009     48.533695000000002     50.861599999999996
