21

C      46.699749999999987     46.672349999999994     45.987949999999984
C      45.253050000000002     46.902949999999997     46.005649999999996
C      47.707650000000001     47.644550000000002     46.329349999999998
C      49.467749999999995     49.863149999999997     47.054150000000000
C      48.602750000000000     47.424150000000004     47.463349999999998
C      49.561549999999997     48.430650000000007     47.721049999999998
C      48.760350000000003     46.267950000000006     48.395450000000004
C      50.571449999999999     48.290650000000007     48.637549999999997
C      49.721449999999990     46.228450000000002     49.307049999999997
C      50.665949999999995     47.174849999999999     49.563650000000003
H      47.003249999999994     45.894950000000001     46.810349999999993
H      50.229349999999997     50.303950000000007     46.239150000000002
H      45.137549999999990     47.934350000000002     46.198450000000001
H      44.391649999999998     46.119050000000001     46.111349999999995
H      47.454650000000001     48.527350000000006     45.938549999999999
H      48.627049999999997     49.750650000000000     46.387650000000001
H      49.068049999999999     50.650449999999999     47.714350000000003
H      48.033450000000002     45.349550000000001     48.304549999999999
H      51.124949999999998     49.016250000000007     48.812849999999990
H      49.726749999999996     45.487050000000004     50.061450000000001
H      51.608350000000002     46.966749999999998     49.871149999999993
