18

C      48.948249999999994     49.898799999999994     48.257749999999994
C      49.328649999999996     48.114200000000004     46.420250000000003
C      48.194450000000003     48.631100000000004     48.727949999999993
C      48.741849999999999     47.710200000000000     47.779550000000000
C      47.013649999999998     48.451000000000001     49.482349999999997
C      47.981849999999994     46.559800000000003     47.726750000000003
C      46.566149999999993     47.131800000000005     49.397649999999999
C      46.993349999999992     45.974100000000000     48.636949999999999
H      50.112650000000002     49.088600000000007     46.428750000000001
H      48.424149999999997     48.362299999999998     45.747550000000004
H      48.585849999999994     50.364200000000004     47.310850000000002
H      48.849249999999998     50.789099999999998     48.795050000000003
H      49.599549999999994     47.250200000000000     45.819650000000003
H      46.804349999999999     49.208000000000006     50.202750000000002
H      48.211050000000000     45.943199999999997     46.808750000000003
H      45.887349999999998     47.292200000000001     50.252449999999996
H      46.145250000000004     45.210900000000002     48.978250000000003
H      50.062249999999992     49.580300000000001     48.396250000000009
