17

C      48.406949999999995     46.312049999999992     49.185834999999990
C      48.205050000000000     49.844850000000008     47.245004999999999
C      49.283850000000001     48.526750000000007     48.934535000000004
C      48.071849999999998     48.985450000000000     48.470435000000002
C      49.503450000000001     47.152450000000002     49.283635000000004
C      46.783950000000004     48.591850000000008     48.944935000000001
C      47.041449999999998     46.089449999999999     48.803735000000003
C      46.327050000000000     47.340249999999997     48.637535000000000
H      49.994749999999996     49.326050000000009     48.607435000000002
H      49.263649999999984     50.504150000000010     47.069065000000002
H      49.083249999999992     45.311850000000007     49.249835000000004
H      47.857249999999993     49.154550000000000     46.513165000000001
H      47.593249999999998     50.824449999999999     47.149495000000002
H      50.614350000000002     46.939149999999998     49.486834999999999
H      45.708550000000002     49.023750000000007     48.941834999999998
H      46.712949999999992     45.175550000000001     48.253235000000004
H      45.385649999999998     47.176250000000010     47.980935000000002
