6

C      48.677549999999997     48.120049999999992     47.565999999999995
C      47.399249999999995     47.571249999999999     47.999899999999997
H      49.474350000000001     48.016550000000002     48.198200000000000
H      48.759949999999989     48.836350000000003     46.878100000000003
H      46.525649999999999     47.163649999999997     47.331899999999990
H      47.483450000000005     47.415749999999996     49.121899999999997
