5

C      48.099899999999991     48.274649999999994     47.843449999999990
H      48.163699999999999     47.235150000000004     48.037550000000003
H      47.182700000000004     48.502349999999993     47.268749999999997
H      48.593399999999995     48.745750000000001     48.822650000000003
H      48.817299999999996     48.764849999999996     47.177349999999997
