6

C      47.354949999999995     48.192399999999992     48.056249999999991
C      48.642049999999998     47.941900000000004     47.896349999999998
H      46.538650000000004     48.564099999999996     47.536149999999999
H      46.929950000000005     47.994799999999998     49.029350000000001
H      49.255250000000004     48.167800000000000     46.970649999999999
H      49.461349999999996     47.435900000000004     48.624649999999995
