6

C      48.476749999999996     47.782099999999993     48.061849999999993
C      47.443450000000006     48.518900000000002     47.968750000000000
H      49.354049999999994     47.770899999999997     48.912750000000003
H      48.514350000000000     46.950800000000001     47.280850000000001
H      46.645950000000006     48.859200000000001     47.087249999999997
H      47.435950000000005     49.049199999999999     48.778349999999996
