19

C      50.257309999999990     48.346849999999996     48.728899999999996
C      48.512119999999996     48.927950000000003     46.153300000000002
C      50.022340000000000     47.339550000000003     47.745300000000000
C      47.722210000000004     48.169950000000000     47.280500000000004
C      48.497749999999996     47.219549999999998     48.070400000000006
C      46.311800000000005     48.396550000000005     47.402400000000000
C      47.770499999999998     46.715449999999997     49.073399999999992
C      45.865699999999990     48.126550000000002     48.765500000000003
C      46.446299999999994     47.149749999999997     49.488000000000000
H      47.842609999999993     49.672950000000000     45.441000000000003
H      49.219619999999992     48.892250000000004     48.731600000000000
H      51.245300000000000     48.945850000000000     48.869000000000000
H      49.231539999999995     48.370149999999995     45.679199999999994
H      49.323260000000005     49.612650000000002     46.384900000000002
H      50.717209999999994     46.533549999999998     47.627799999999993
H      45.696299999999994     49.284250000000000     46.766900000000007
H      48.034570000000002     46.327050000000000     49.981199999999987
H      44.754700000000000     48.427350000000004     49.280900000000003
H      46.020899999999997     46.800849999999997     50.558999999999997
