6

C      48.721999999999987     48.159899999999993     47.976799999999997
C      47.470500000000001     47.929000000000002     48.070999999999998
H      49.465199999999996     48.355199999999996     48.774400000000000
H      49.260400000000004     47.921300000000002     46.834800000000001
H      46.534800000000004     47.644800000000004     47.762400000000000
H      47.413299999999992     47.884900000000002     49.165199999999999
