6

C      47.557449999999989     47.464699999999993     47.928699999999992
C      48.426949999999991     48.267100000000006     48.192199999999985
H      46.563249999999996     47.731800000000000     47.364199999999997
H      47.315749999999994     46.714300000000001     48.635800000000003
H      49.436750000000004     47.768599999999999     48.380200000000002
H      48.177350000000004     49.285699999999999     48.390500000000003
