22

C      47.472299999999997     49.592649999999992     46.420549999999992
C      47.137200000000007     48.188650000000003     45.827149999999996
C      47.287500000000009     49.808150000000005     48.001749999999994
C      46.841900000000010     47.128549999999997     46.788850000000004
C      47.890700000000010     48.524650000000001     48.511450000000004
C      47.772199999999998     47.204050000000002     48.030750000000005
C      48.722900000000010     48.440550000000002     49.788350000000001
C      48.385100000000008     46.069350000000000     48.804650000000002
C      49.523300000000006     47.456949999999999     50.251849999999997
C      49.392600000000002     46.194449999999996     49.770550000000007
H      46.997100000000003     50.259449999999994     45.720450000000000
H      48.434500000000000     49.936150000000005     46.186550000000004
H      46.240600000000001     48.631350000000005     44.991549999999997
H      48.147900000000007     47.984150000000000     45.331849999999996
H      46.141900000000007     50.040450000000000     48.290150000000004
H      47.503000000000000     50.895450000000004     48.541950000000007
H      47.260300000000001     46.262149999999998     46.242049999999999
H      45.679000000000002     46.756250000000001     47.034649999999992
H      47.931200000000004     49.085349999999998     50.263050000000000
H      47.832500000000010     45.104549999999996     48.553149999999995
H      50.320999999999998     47.392249999999997     51.008450000000003
H      49.819900000000004     45.355049999999999     50.230049999999999
