21

C      50.015899999999988     48.970804999999999     48.159599999999990
C      51.433300000000003     48.492705000000001     48.129199999999997
C      49.075800000000001     48.306205000000006     47.384599999999999
C      47.846000000000004     46.340815000000006     48.919700000000006
C      47.558800000000005     48.391805000000005     47.277200000000001
C      47.007899999999992     47.169925000000006     47.942700000000002
C      46.705399999999997     49.306605000000005     46.603700000000003
C      45.529799999999994     47.022274999999993     47.767799999999994
C      45.347200000000001     49.229104999999990     46.764399999999995
C      44.703099999999992     48.086404999999999     47.397300000000001
H      49.563599999999994     49.823205000000002     48.709800000000001
H      51.808700000000002     48.364805000000004     46.933199999999999
H      51.283699999999996     47.716845000000006     48.733500000000006
H      52.258200000000002     48.819005000000004     48.757800000000003
H      49.543700000000001     47.340405000000004     46.916200000000003
H      48.837999999999994     46.442764999999994     48.407699999999991
H      47.614400000000003     45.667195000000007     49.765000000000001
H      47.025099999999995     50.332804999999993     46.234999999999999
H      45.074399999999997     46.208744999999993     47.939899999999994
H      44.723399999999998     50.048404999999988     46.544200000000004
H      43.741799999999998     47.746295000000003     47.130099999999999
