6

C      47.800649999999990     48.131019999999992     47.386999999999993
C      48.578550000000007     47.772329999999997     48.455600000000004
H      48.036750000000012     49.100690000000000     47.023000000000010
H      47.114649999999997     47.341719999999995     46.934899999999999
H      48.885350000000003     48.703159999999997     49.065100000000001
H      48.275149999999996     46.899310000000000     48.989200000000011
