6

C      47.442999999999998     48.216949999999990     47.989504999999987
C      48.670699999999997     47.677149999999997     48.007804999999991
H      46.844800000000006     47.982349999999997     47.024394999999998
H      46.947800000000001     48.692650000000000     48.673204999999996
H      49.155199999999994     48.147050000000007     48.975605000000002
H      49.077600000000004     47.307350000000000     47.037754999999990
