55

C      42.789330000000000     50.253649999999993     50.607449999999993
C      44.974130000000002     48.405549999999998     47.139849999999996
C      51.036220000000000     45.390549999999998     45.285350000000001
C      46.163930000000008     49.245849999999997     47.320050000000002
C      51.085360000000009     46.847249999999995     45.337850000000003
C      49.855800000000002     44.606349999999999     45.291049999999998
C      48.550417000000010     49.491750000000003     46.543849999999999
C      46.449929999999995     45.173049999999996     46.488849999999999
C      49.799190000000010     48.864049999999999     46.073750000000004
C      47.560429999999997     44.461750000000002     46.057249999999996
C      47.263729999999995     48.728450000000002     46.681849999999997
C      46.131029999999996     46.602650000000004     46.187650000000005
C      49.872070000000008     47.448050000000002     45.607349999999997
C      48.624148000000005     45.267050000000005     45.776750000000000
C      47.312529999999995     47.372049999999994     46.158249999999995
C      48.649650000000008     46.697250000000004     45.944949999999999
C      43.646330000000006     49.077850000000005     47.249650000000003
C      43.709930000000000     49.985750000000003     48.329949999999997
C      44.917330000000007     50.830850000000005     48.532449999999997
C      46.187129999999996     50.583750000000002     47.944150000000000
C      47.417929999999998     51.340550000000000     47.902749999999997
C      48.478634000000014     50.763650000000005     47.251249999999999
C      52.256160000000008     44.597050000000003     45.074849999999998
C      53.449380000000005     45.209150000000001     44.794049999999999
C      53.437130000000010     46.629650000000005     45.159149999999997
C      52.356830000000016     47.497049999999994     45.393650000000001
C      52.395910000000008     48.943350000000002     46.077449999999999
C      51.057310000000001     49.224950000000000     46.654049999999998
C      45.230230000000006     44.509350000000005     47.185150000000000
C      44.931229999999999     43.121850000000002     46.639949999999999
C      47.605130000000003     52.587849999999996     48.791849999999997
C      42.542330000000007     49.987850000000002     49.240549999999999
H      52.737549999999999     48.622849999999993     47.074249999999999
H      43.796630000000007     50.478550000000006     51.179450000000003
H      49.859620000000007     43.494350000000004     44.973450000000000
H      42.740430000000003     48.595250000000000     46.921949999999995
H      44.954229999999995     51.875049999999995     48.988050000000001
H      49.335940000000008     51.309149999999995     47.325749999999999
H      52.179920000000010     43.592850000000006     45.276850000000003
H      54.412469999999999     44.684149999999995     44.710750000000004
H      54.350830000000009     47.248349999999995     44.985849999999999
H      50.763460000000009     50.178249999999998     47.115049999999997
H      53.013400000000019     49.669649999999997     45.421849999999999
H      45.020030000000006     42.329050000000002     47.472049999999996
H      45.590730000000008     42.880549999999992     45.727150000000002
H      48.501438000000007     42.884949999999996     45.290750000000003
H      46.756730000000005     52.758549999999993     49.518550000000005
H      47.791629999999998     53.670949999999998     48.360250000000001
H      48.468388000000004     52.414250000000003     49.269350000000003
H      41.943230000000000     50.453449999999997     51.289249999999996
H      41.587530000000001     50.092149999999997     48.638850000000005
H      43.842830000000006     43.279350000000001     46.283050000000003
N      44.956630000000004     47.175750000000001     46.662350000000004
O      44.352429999999998     45.069849999999995     47.792650000000002
O      47.744929999999997     43.122750000000003     45.927950000000003
