62

C      44.945599999999992     49.277050000000003     48.574284999999996
C      50.775700000000001     49.376950000000001     44.397005000000000
C      46.051699999999997     48.423950000000012     48.742874999999998
C      50.869799999999998     48.614350000000009     45.678395000000002
C      45.146599999999999     50.499450000000003     47.884554999999999
C      49.652000000000001     50.189750000000011     44.132075000000000
C      47.358300000000000     48.494450000000008     47.996645000000001
C      49.677399999999999     48.689250000000008     46.596785000000004
C      46.528199999999998     51.664250000000003     46.053674999999998
C      47.619699999999995     51.408149999999999     45.221074999999999
C      46.291499999999999     50.466050000000003     46.972065000000001
C      48.691599999999994     50.549849999999999     45.153015000000003
C      47.483199999999997     49.682250000000003     47.171514999999999
C      48.669100000000000     49.608049999999999     46.452784999999999
C      48.272499999999994     47.331050000000012     48.014245000000003
C      49.571699999999993     47.541250000000012     47.594535000000000
C      43.813399999999994     49.265050000000009     49.557085000000001
C      43.792999999999999     48.449950000000008     50.637385000000002
C      44.992800000000003     47.709850000000010     50.971585000000005
C      45.877700000000004     47.523150000000008     49.874885000000006
C      46.967599999999997     46.581750000000007     49.959485000000001
C      48.069699999999997     46.314250000000008     49.083215000000003
C      51.556399999999996     48.859749999999998     43.291085000000002
C      52.803199999999997     48.229450000000007     43.540855000000001
C      52.838300000000004     47.594550000000005     44.870744999999999
C      51.773199999999996     47.525650000000006     45.905555000000000
C      51.815899999999999     46.632950000000001     46.962425000000003
C      50.618199999999987     46.653150000000004     47.947155000000002
C      49.168799999999997     45.605350000000008     49.613685000000004
C      50.437799999999996     45.551750000000006     48.869734999999991
C      44.381599999999999     51.671150000000004     47.950054999999999
C      43.207799999999999     51.529450000000004     48.554675000000003
C      43.053999999999995     50.464649999999999     49.497985000000000
C      45.310800000000000     47.234050000000003     52.305184999999994
C      44.395299999999999     47.486750000000008     53.466885000000005
C      43.169599999999996     48.357850000000006     53.548185000000004
C      51.340999999999994     44.464050000000007     49.435085000000001
C      52.772299999999994     45.578250000000004     46.990965000000003
H      49.377599999999987     50.437550000000009     43.053705000000001
H      45.810299999999998     52.392050000000005     45.668295000000001
H      47.504900000000006     51.805950000000003     44.296244999999999
H      42.974699999999999     48.471750000000007     51.454185000000003
H      46.959299999999999     45.536450000000009     50.647584999999999
H      53.162099999999995     47.813250000000004     42.739165000000000
H      53.626500000000000     46.947250000000004     45.338754999999999
H      48.965299999999999     44.997350000000004     50.469284999999999
H      44.736699999999999     52.446750000000002     47.227345000000000
H      42.508499999999998     52.029050000000005     48.229995000000002
H      42.395499999999998     50.710150000000006     50.233585000000005
H      45.092900000000000     47.862950000000005     54.202984999999998
H      44.600600000000000     46.549350000000011     54.241484999999997
H      51.050300000000000     48.864750000000008     41.264915000000002
H      43.276499999999999     49.247950000000010     52.987785000000002
H      42.373500000000000     47.589649999999999     53.814885000000004
H      42.882500000000000     48.932450000000010     54.735084999999998
H      50.753000000000000     43.553249999999998     49.933684999999997
H      52.146799999999999     44.812150000000010     50.133785000000003
H      52.117599999999996     43.859850000000002     48.742694999999998
H      53.362600000000000     45.177050000000001     46.096094999999998
H      53.155299999999997     45.483049999999999     47.975724999999997
O      45.960399999999993     46.295750000000005     52.550484999999995
O      51.103999999999999     49.379250000000006     42.043585000000000
