6

C      48.734799999999993     47.740949999999991     48.180699999999995
C      47.511099999999992     48.185350000000000     47.917599999999993
H      49.318199999999997     47.184649999999998     48.942499999999995
H      49.425699999999999     47.724950000000000     47.429699999999997
H      46.574300000000001     48.562249999999999     48.359999999999999
H      47.566200000000002     48.815350000000002     47.057500000000005
