124

C      52.423149999999993     44.242499999999993     51.751199999999990
C      52.336549999999995     42.881500000000003     51.812400000000004
C      41.672750000000001     40.829700000000003     49.139099999999999
C      42.939349999999997     40.350200000000001     48.525800000000004
C      51.291750000000000     44.897999999999996     51.448100000000004
C      51.179449999999996     42.054299999999998     51.183500000000002
C      41.922750000000001     43.405299999999997     49.246900000000004
C      44.225149999999992     40.912199999999999     48.928500000000000
C      48.870150000000002     45.147399999999990     50.788499999999999
C      48.936249999999994     42.255200000000002     50.148899999999998
C      44.148750000000000     44.746899999999997     49.438800000000001
C      46.729349999999990     45.142600000000002     49.731900000000003
C      46.757149999999989     42.170000000000002     49.076400000000000
C      49.994650000000000     44.299499999999995     51.031500000000001
C      50.029449999999990     42.867699999999999     50.938900000000004
C      43.405250000000002     43.562200000000004     49.166600000000003
C      47.768449999999994     44.364799999999988     50.289400000000001
C      47.650950000000002     42.892499999999998     50.066299999999998
C      45.534950000000002     44.317599999999999     49.277700000000003
C      44.197249999999990     42.252200000000002     49.123100000000001
C      45.503650000000000     42.818299999999994     48.904800000000002
C      45.454749999999997     40.231200000000001     48.635899999999999
C      46.753149999999998     40.720900000000000     49.025599999999997
C      48.038449999999990     40.147999999999996     49.107799999999997
C      49.129049999999999     40.814300000000003     49.881599999999999
C      50.269749999999995     40.219700000000003     50.314300000000003
C      51.438949999999998     40.634599999999992     51.012100000000004
C      53.365749999999998     42.095799999999997     52.394599999999997
C      53.379749999999994     40.725799999999992     52.001800000000003
C      43.016749999999995     39.288100000000000     47.588099999999997
C      44.098749999999988     38.698299999999989     47.106400000000001
C      45.267549999999993     39.009999999999991     47.858100000000000
C      41.319249999999990     42.092399999999998     49.317000000000000
C      47.080750000000002     53.445300000000003     43.958900000000000
C      53.050149999999995     49.155500000000004     44.534799999999997
C      49.185049999999997     49.314099999999996     50.267400000000002
C      47.358349999999994     54.816499999999991     43.645499999999998
C      48.079349999999998     53.038899999999998     44.842799999999997
C      53.321049999999993     48.468299999999999     45.849400000000003
C      50.203349999999993     48.638699999999986     49.587600000000002
C      52.194049999999997     50.164399999999986     44.785800000000002
C      49.198749999999997     50.761499999999984     50.221200000000003
C      52.154949999999992     48.551499999999990     48.148400000000002
C      50.465849999999996     53.509000000000000     48.516100000000002
C      50.228549999999991     53.460200000000000     45.773800000000001
C      48.508449999999989     55.258399999999995     44.435600000000001
C      48.990349999999999     54.089399999999998     45.168500000000002
C      52.479449999999993     49.014699999999991     46.783999999999999
C      51.081049999999998     49.321899999999985     48.807600000000001
C      51.802149999999990     50.253699999999995     46.194200000000002
C      49.737850000000002     51.390999999999991     48.877200000000002
C      49.310549999999999     52.594199999999987     48.311799999999998
C      49.998550000000002     52.137900000000002     46.042900000000003
C      50.792049999999996     50.635199999999998     48.126600000000003
C      50.876349999999995     51.105300000000000     46.688499999999998
C      49.641649999999991     51.288099999999986     51.451900000000002
C      50.610549999999996     54.916099999999986     48.519300000000001
C      48.600850000000001     51.765500000000003     45.714599999999997
C      52.099849999999996     55.451499999999996     45.892499999999998
C      51.514149999999994     54.280499999999989     46.011499999999998
C      54.173650000000002     47.267399999999995     45.846699999999998
C      55.362149999999993     47.106799999999993     46.180599999999998
C      52.762250000000002     47.378799999999984     48.703800000000001
C      53.057749999999992     47.075199999999995     50.068600000000004
C      53.832450000000001     45.937799999999996     50.146200000000000
C      49.474150000000002     52.637999999999991     51.454500000000003
C      48.623550000000002     56.758699999999990     44.547300000000000
C      48.489550000000001     56.964599999999990     46.048700000000004
C      40.793549999999989     39.833399999999997     49.971000000000004
C      40.782549999999993     44.405500000000004     49.391700000000000
C      53.621649999999995     55.407600000000002     46.169600000000003
H      51.305949999999989     46.027699999999996     51.463799999999999
H      48.701649999999994     46.255199999999988     50.751899999999999
H      43.675350000000002     45.683199999999999     49.861699999999999
H      47.108950000000000     46.190899999999985     49.256999999999998
H      50.479749999999989     39.126400000000004     50.124499999999998
H      54.248950000000001     42.595500000000001     52.996499999999997
H      54.369149999999998     40.418999999999997     52.297200000000004
H      42.004749999999994     39.049899999999994     47.293999999999997
H      44.194349999999993     37.961100000000002     46.181199999999997
H      46.099849999999996     38.549799999999991     47.852200000000003
H      40.292349999999992     42.120599999999996     49.703499999999998
H      53.284450000000000     48.914699999999996     43.396999999999998
H      46.508149999999993     55.519899999999993     43.003500000000003
H      46.195149999999991     53.015299999999996     43.621800000000000
H      51.494349999999990     52.961900000000000     48.505099999999999
H      49.966549999999991     55.616299999999995     48.903900000000000
H      48.260550000000002     50.757499999999993     45.521700000000003
H      48.298449999999995     51.905999999999992     46.859099999999998
H      51.360449999999993     56.127399999999994     46.046100000000003
H      52.096749999999993     53.455500000000001     45.898499999999999
H      51.603850000000001     50.700099999999992     44.083800000000004
H      48.565949999999994     53.208099999999988     48.647199999999998
H      55.913350000000001     46.156299999999987     46.566900000000004
H      53.635649999999991     46.354599999999991     45.679499999999997
H      56.172350000000002     47.731799999999993     45.567300000000003
H      53.118649999999995     46.787499999999994     47.906599999999997
H      53.559949999999994     45.052599999999998     49.546700000000001
H      54.862549999999992     46.221499999999992     50.313600000000001
H      50.342949999999995     50.801800000000000     52.013800000000003
H      50.425649999999997     46.939200000000000     48.500399999999999
H      47.763149999999989     49.531299999999987     51.567100000000003
H      49.554749999999991     57.200599999999994     44.354300000000002
H      47.587449999999997     56.525700000000001     46.615200000000002
H      48.320050000000002     58.038899999999998     46.358800000000002
H      53.965649999999989     55.108699999999985     47.246400000000001
H      47.794449999999991     57.385099999999994     44.011600000000001
H      40.066949999999999     39.322099999999992     49.146799999999999
H      41.207649999999994     39.055799999999991     50.752699999999997
H      39.827649999999998     40.378000000000000     50.185299999999998
H      41.037950000000002     45.529599999999988     49.253900000000002
H      40.636849999999988     44.429500000000004     50.314200000000000
H      39.868049999999990     44.306500000000000     48.939399999999999
H      53.903950000000002     56.432299999999998     46.094400000000000
H      48.927050000000001     56.168599999999998     46.718100000000000
H      54.131949999999996     54.724000000000004     45.556400000000004
H      51.660649999999997     55.326599999999999     48.631999999999998
N      52.559849999999990     39.952399999999997     51.291000000000004
O      53.628849999999993     44.919200000000004     51.637900000000002
O      48.316449999999996     39.194000000000003     48.462899999999998
O      52.729049999999994     47.709099999999992     51.031900000000000
O      49.710050000000003     53.796899999999994     51.467900000000000
O      49.813349999999993     47.419799999999995     49.112200000000001
O      48.154949999999992     48.735099999999989     50.968499999999999
