48

C      50.858049999999992     48.573714999999993     45.358299999999993
C      51.085749999999997     47.272594999999995     45.051200000000001
C      50.764849999999988     49.307094999999990     46.705699999999993
C      51.460349999999998     46.528454999999994     46.223400000000005
C      49.576850000000000     48.409154999999998     48.757600000000011
C      50.595349999999989     48.313984999999988     47.718200000000003
C      51.216049999999989     46.939414999999997     47.466999999999999
C      50.765250000000002     49.238054999999989     44.051600000000001
C      50.165050000000001     48.716814999999997     42.830900000000000
C      50.523149999999994     47.463594999999998     42.760000000000005
C      51.210450000000002     46.727464999999995     43.712499999999999
C      50.233550000000001     50.769644999999983     46.486000000000004
C      51.014449999999989     51.528824999999998     45.287400000000005
C      50.366650000000000     50.691964999999996     44.138000000000005
C      52.009949999999996     45.104654999999994     45.964300000000009
C      52.248349999999995     44.409419999999997     44.780700000000003
C      51.549249999999994     45.199624999999997     43.688800000000001
C      48.678949999999993     47.514764999999997     49.379400000000004
C      48.170150000000000     47.740404999999996     52.943299999999994
C      47.800750000000001     47.018744999999996     50.102899999999998
C      46.897050000000000     47.115484999999993     52.361000000000004
C      46.756650000000000     46.574654999999993     51.088500000000010
C      45.891649999999991     46.695524999999989     53.321899999999999
C      45.584150000000001     46.003774999999990     50.582899999999995
C      44.935749999999992     45.892645000000002     52.753199999999993
C      44.552649999999993     45.537214999999989     51.461800000000004
H      51.568849999999991     46.290714999999992     48.394400000000005
H      49.885649999999991     49.231654999999989     41.831099999999999
H      50.116949999999996     51.246944999999997     47.393400000000000
H      49.458049999999993     50.399324999999990     46.051500000000004
H      51.397149999999989     52.640624999999986     45.343200000000003
H      51.925449999999991     51.230584999999991     45.679000000000002
H      49.259549999999997     50.862555000000000     43.826500000000003
H      50.463450000000002     51.262805000000000     43.210999999999999
H      52.396250000000002     44.590325999999990     46.912300000000002
H      51.912149999999990     45.117764999999991     42.708400000000005
H      52.440249999999999     43.359375000000014     44.639900000000004
H      50.474649999999990     44.648308000000000     43.847200000000001
H      49.154849999999989     49.527994999999990     49.113300000000010
H      49.623849999999997     45.862694999999988     42.010100000000001
H      48.576149999999991     47.304755000000000     54.157700000000006
H      48.899549999999998     47.472735000000000     52.225600000000000
H      48.175049999999992     48.831824999999995     52.885899999999999
H      45.942450000000001     46.600944999999996     54.338999999999999
H      45.590749999999993     46.008105000000000     49.372700000000009
H      43.967250000000000     44.953404999999989     53.427300000000002
H      43.559750000000001     44.920064999999994     50.931300000000000
O      50.078449999999997     46.593714999999989     41.661000000000001
