55

C      45.215949999999992     48.666629999999998     49.549599999999998
C      44.226049999999994     48.675729999999987     48.615400000000001
C      45.721749999999993     51.157129999999995     43.414200000000001
C      46.546249999999993     49.181229999999999     49.155900000000003
C      46.983449999999998     50.415629999999993     43.792900000000003
C      44.428949999999993     49.710430000000002     47.631600000000006
C      45.060549999999999     51.269430000000000     44.659900000000000
C      48.210050000000003     49.500929999999997     47.270800000000001
C      48.419449999999991     49.899929999999998     45.832600000000006
C      46.813250000000004     49.615629999999996     47.774700000000003
C      47.110449999999993     50.142629999999997     45.100400000000000
C      45.613750000000003     49.937730000000002     47.013600000000004
C      45.815049999999992     50.563130000000001     45.679500000000004
C      45.173449999999995     48.120429999999999     50.872800000000005
C      43.831650000000003     47.339330000000004     51.073399999999999
C      42.939249999999994     47.383030000000005     50.127800000000001
C      43.117049999999999     47.782229999999998     48.773400000000002
C      49.349650000000004     49.679829999999995     48.135900000000007
C      50.695950000000003     49.942430000000002     46.318600000000004
C      49.239550000000001     49.499929999999992     49.562000000000005
C      47.745950000000001     49.367429999999999     50.016500000000001
C      46.187850000000005     48.392730000000000     51.772700000000007
C      47.481450000000002     49.024130000000000     51.331899999999997
C      52.070649999999993     50.046629999999993     45.771100000000004
C      52.906937000000006     49.097329999999999     46.568900000000006
C      43.732750000000003     46.345829999999992     52.257700000000007
C      44.580049999999993     45.081080000000000     52.554099999999998
C      53.778299999999994     50.082729999999998     47.540400000000005
C      46.356050000000003     47.173429999999996     52.732800000000005
C      50.247849999999993     49.214630000000000     50.499500000000005
H      45.782549999999993     51.370829999999998     42.261400000000002
H      47.766550000000002     50.555030000000002     43.067500000000003
H      43.550549999999994     50.329629999999995     47.443200000000004
H      44.134250000000002     51.702029999999993     44.762000000000000
H      42.437249999999999     47.449230000000000     48.030600000000000
H      48.388349999999996     49.216329999999999     51.992600000000003
H      53.275682000000010     48.219229999999996     46.001300000000001
H      52.256349999999991     48.511129999999994     47.361500000000007
H      43.794949999999993     44.297970000000007     52.320600000000006
H      45.549249999999994     45.192260000000005     52.017600000000009
H      44.878349999999990     45.019210000000001     53.545800000000007
H      41.589250000000000     46.082099999999997     49.977800000000002
H      54.460450000000002     49.651430000000005     48.368000000000002
H      53.069511000000006     50.690330000000003     48.174300000000002
H      54.431459999999994     50.575429999999997     46.722000000000001
H      46.781150000000004     47.292929999999998     53.738599999999998
H      47.412450000000000     46.518230000000003     52.285100000000007
H      45.340849999999996     46.810530000000000     53.118900000000004
H      49.679650000000002     49.226330000000004     51.494300000000003
H      51.394550000000002     49.334829999999997     50.319600000000001
N      50.548150000000000     49.706130000000002     47.581100000000006
N      49.657350000000001     50.153629999999993     45.513300000000001
O      52.320149999999991     50.989530000000002     45.054200000000002
O      43.272749999999995     46.671629999999993     53.340800000000009
O      41.539549999999998     47.031229999999994     50.071500000000000
