21

C      46.188349999999986     50.431549999999994     49.725999999999999
C      50.528649999999999     49.103449999999995     46.746099999999998
C      46.167349999999999     50.045850000000002     48.168300000000002
C      49.389250000000004     48.606849999999994     47.187600000000003
C      46.914450000000002     48.757850000000005     47.947500000000005
C      48.180250000000001     47.937849999999997     47.502700000000004
C      45.996250000000003     47.766149999999996     48.450299999999999
C      48.308250000000001     46.465649999999997     47.482299999999995
C      46.043750000000003     46.294950000000000     48.551400000000001
C      47.274550000000005     45.734150000000000     47.953299999999999
H      46.925150000000002     51.229050000000001     50.298599999999993
H      47.109949999999998     49.836950000000002     50.229200000000006
H      50.781649999999999     48.989149999999995     45.701400000000007
H      51.079750000000004     49.495949999999993     47.521299999999997
H      46.743849999999995     50.884249999999994     47.448700000000002
H      45.527450000000002     51.324749999999995     49.677199999999999
H      44.920249999999996     50.073949999999996     48.168700000000001
H      44.936650000000000     48.210949999999997     48.342399999999998
H      49.036149999999992     46.127250000000004     46.904899999999998
H      45.186350000000004     45.753249999999994     48.834999999999994
H      47.533950000000004     44.675250000000005     47.863699999999994
