24

C      47.488199999999992     45.617679999999993     48.528749999999988
C      47.949099999999994     48.680180000000000     50.911050000000003
C      49.396999999999998     48.298780000000001     50.763750000000002
C      47.299599999999998     48.869412680000003     49.675550000000001
C      48.300399999999996     46.795979999999993     48.029049999999998
C      46.835200000000000     48.884533100000006     48.375249999999994
C      47.578399999999995     48.002680000000005     47.415349999999989
C      46.603099999999998     50.146599999999999     47.661050000000003
C      47.499199999999995     48.023279999999993     46.071349999999995
C      46.448799999999999     50.199520000000000     46.212350000000001
C      46.914800000000000     49.188293000000009     45.334949999999992
H      48.030600000000000     45.260879999999993     49.502150000000000
H      47.324900000000000     44.929780000000001     47.695449999999994
H      46.515899999999995     46.179480000000005     48.896950000000004
H      50.190700000000000     48.478680000000004     51.675249999999991
H      49.349399999999996     47.192779999999992     50.530349999999999
H      49.907500000000006     48.960248900000003     50.137349999999998
H      47.251199999999997     49.046246000000004     51.805850000000007
H      49.016300000000008     46.477679999999999     47.176850000000002
H      48.956399999999995     47.148479999999999     48.815749999999994
H      46.685600000000001     51.070219999999999     48.376350000000002
H      47.770299999999999     47.140779999999999     45.383550000000000
H      45.809300000000000     50.887810000000009     45.678049999999999
H      46.728099999999998     49.089888000000009     44.194149999999993
