22

C      47.252549999999985     45.787899999999986     48.361261999999989
C      48.218549999999993     45.632599999999996     47.488361999999995
C      46.548149999999993     47.115700000000004     48.746662000000001
C      49.981949999999998     48.582899999999995     49.641962000000007
C      47.411249999999995     48.281499999999994     48.328661999999994
C      48.735150000000004     48.852999999999994     48.605661999999995
C      46.806550000000001     48.588899999999995     47.001462000000004
C      49.425150000000002     49.788499999999999     47.788162000000000
C      47.301349999999999     49.755700000000004     46.409961999999993
C      48.360249999999994     50.420699999999997     46.941962000000004
H      49.096149999999994     48.216200000000001     50.403838000000007
H      46.691850000000002     46.951700000000002     49.848061999999999
H      46.655249999999995     44.935299999999998     48.711361999999994
H      48.688649999999996     46.540400000000005     47.046762000000001
H      48.617850000000004     44.509100000000004     47.437061999999997
H      45.439750000000004     47.069599999999994     48.269961999999992
H      50.560249999999996     49.432900000000004     50.125062000000000
H      50.440749999999994     47.733900000000006     49.013661999999997
H      45.924149999999997     47.979100000000003     46.587462000000002
H      50.465750000000000     50.212699999999998     48.159561999999994
H      46.696649999999991     50.009200000000007     45.596161999999993
H      48.687150000000003     51.490899999999996     46.836162000000002
