20

C      49.379512999999989     47.908449999999995     46.209634999999992
C      49.736169999999994     48.640649999999994     45.135934999999996
C      47.120260000000002     46.059350000000002     49.184234999999994
C      49.018259999999998     47.200249999999997     47.342035000000003
C      47.976160000000000     47.168750000000003     49.744134999999993
C      48.649274999999996     47.859250000000003     48.576434999999996
C      47.953759999999981     47.812849999999997     51.040434999999995
C      49.174177999999998     49.171549999999996     48.745534999999997
C      48.667869999999994     49.044350000000001     50.939434999999996
C      49.077877999999991     49.955050000000000     49.895434999999999
H      46.995759999999983     45.050950000000000     49.357734999999998
H      48.873250999999996     46.070050000000002     47.338334999999994
H      49.230173999999998     48.373450000000005     44.120764999999999
H      50.005540000000003     49.611549999999994     45.588535000000000
H      45.994459999999997     46.088850000000001     49.689735000000006
H      47.551559999999995     47.341750000000005     51.879235000000001
H      49.454479999999997     49.826549999999997     48.027335000000001
H      48.921909999999997     49.603250000000003     51.747335000000000
H      49.071726999999996     50.949050000000000     49.917634999999997
H      46.766760000000012     46.472450000000002     48.181334999999997
