5

C      47.962899999999983     48.213149999999999     47.741649999999993
H      46.928100000000001     48.549949999999995     47.403250000000000
H      47.852899999999991     48.962149999999994     48.606349999999999
H      49.071899999999999     48.446650000000005     47.393650000000001
H      47.628000000000000     47.037850000000006     47.883850000000002
