51

C      50.954899999999995     47.820099999999996     45.667914999999986
C      43.110800000000005     48.897799999999997     52.540214999999989
C      49.503900000000002     47.903699999999994     45.670614999999998
C      43.460000000000001     49.543599999999991     51.271214999999998
C      51.785699999999999     47.185099999999998     46.717015000000004
C      44.072800000000008     47.884300000000003     52.860414999999996
C      49.225900000000003     48.338300000000004     47.022114999999999
C      44.627700000000004     49.321200000000012     50.623414999999994
C      51.569200000000002     46.554500000000004     49.314014999999998
C      50.801000000000002     46.234400000000001     50.172714999999997
C      48.663600000000002     47.079000000000001     51.626914999999997
C      47.891200000000005     48.608200000000004     49.423015000000007
C      51.240600000000008     47.232800000000005     48.026915000000002
C      45.382400000000004     47.666000000000004     52.156314999999992
C      49.603500000000004     47.043399999999998     50.476514999999992
C      47.286000000000001     47.300800000000002     51.390114999999994
C      50.053900000000006     48.004600000000003     48.190314999999998
C      45.501899999999999     48.245399999999997     50.735315000000000
C      49.200800000000008     47.899100000000004     49.439515000000000
C      46.881599999999999     47.986300000000000     50.219515000000001
C      47.881599999999999     48.931300000000000     47.135114999999999
C      47.060700000000004     49.080400000000004     48.194414999999992
C      51.809100000000008     47.583400000000005     44.479124999999996
C      51.191700000000004     47.792700000000004     43.161244999999994
C      49.745400000000004     47.883700000000005     43.251984999999998
C      48.929900000000004     48.127000000000002     44.360174999999998
C      47.670400000000008     48.761699999999998     44.082254999999996
C      46.592700000000001     49.506499999999996     43.929214999999999
C      53.151400000000002     47.316200000000002     44.924234999999996
C      52.873300000000008     46.588600000000000     46.094115000000002
C      45.377299999999998     49.862299999999998     46.880915000000002
C      45.891600000000004     50.038300000000000     48.035814999999999
H      42.020699999999998     48.704200000000000     52.556714999999997
H      42.851000000000006     50.469799999999999     50.693914999999997
H      43.997900000000001     47.593200000000003     53.920415000000006
H      44.806900000000006     49.919500000000006     49.717914999999998
H      50.951500000000003     45.214199999999998     50.668315000000000
H      48.672000000000004     46.466799999999999     52.682514999999995
H      47.410900000000005     49.732100000000010     46.421715000000006
H      51.670300000000005     47.672200000000004     42.123984999999998
H      49.509100000000004     48.369500000000009     42.079584999999994
H      45.739899999999999     49.174199999999999     43.429175000000001
H      46.735199999999999     50.474300000000007     44.207584999999995
H      53.662200000000006     46.628100000000003     49.408514999999994
H      53.979300000000002     46.981900000000003     44.135345000000001
H      53.556500000000007     46.054400000000001     46.827614999999994
H      44.664000000000001     50.569099999999999     46.299014999999997
H      45.629600000000003     50.785800000000002     48.830514999999998
H      45.674900000000001     48.921600000000005     46.110114999999993
N      46.395500000000006     46.956400000000002     52.350714999999994
O      52.859800000000000     46.666000000000004     50.017914999999988
