35

C      47.193249999999992     48.306599999999996     49.605899999999991
C      46.654949999999999     47.202100000000002     48.987299999999998
C      50.403350000000003     48.750200000000007     46.043899999999994
C      49.642150000000001     47.751700000000000     45.338600000000000
C      47.824349999999995     49.300100000000000     48.654899999999998
C      46.726849999999999     47.224299999999999     47.431899999999999
C      49.516549999999995     49.723799999999997     46.525599999999997
C      48.232550000000003     47.626199999999997     45.349999999999994
C      48.247550000000004     49.125900000000001     47.262499999999996
C      47.881050000000002     47.851200000000006     46.706699999999998
C      46.932350000000000     48.760999999999996     51.012200000000000
C      46.036749999999998     48.021100000000004     51.671799999999998
C      45.524349999999998     46.858599999999996     51.008299999999998
C      45.966149999999999     46.208100000000002     49.844699999999996
C      48.546650000000014     50.318399999999997     49.321299999999994
C      48.420650000000009     50.733000000000004     50.651999999999994
C      47.586849999999998     49.930000000000007     51.423999999999999
C      46.164649999999995     46.435199999999995     46.541699999999999
C      45.513750000000002     46.031400000000005     45.505899999999997
C      50.069650000000010     46.660100000000000     44.296399999999998
H      51.460149999999999     49.017799999999994     45.818299999999994
H      49.834050000000005     50.551299999999998     47.167899999999996
H      47.774450000000002     47.072100000000006     44.583399999999997
H      45.691050000000004     48.139099999999999     52.730100000000000
H      44.539850000000001     46.289500000000004     51.073699999999995
H      49.031350000000003     51.146699999999996     48.723199999999999
H      48.762150000000005     51.777699999999996     50.992199999999997
H      47.463650000000001     50.059299999999993     52.630499999999991
H      44.766750000000002     46.692000000000007     45.016399999999997
H      45.177149999999997     44.222300000000004     49.306699999999999
H      50.073650000000015     45.573800000000006     44.744499999999995
H      49.555350000000004     46.854699999999994     43.269900000000000
H      51.050249999999991     46.714500000000001     44.292999999999999
H      45.024450000000002     44.866000000000000     45.272599999999997
O      45.493449999999996     45.129900000000006     49.256399999999999
