17

C      49.208049999999986     47.670199999999987     46.563999999999993
C      49.604650000000007     46.850799999999992     49.527799999999999
C      48.316549999999992     47.863599999999991     47.420500000000004
C      48.458749999999995     47.346699999999991     48.723099999999988
C      47.469250000000002     48.764999999999993     47.048499999999990
C      47.190449999999998     47.384799999999991     49.344300000000004
C      46.356049999999996     49.092099999999988     47.922799999999995
C      46.082250000000002     48.104399999999984     48.864999999999995
H      49.556349999999995     48.382399999999997     45.432000000000002
H      49.973950000000002     46.840699999999991     46.817700000000002
H      50.795150000000007     47.486599999999996     49.435100000000006
H      50.120649999999998     45.961799999999997     49.152199999999993
H      48.065349999999995     49.513799999999996     46.463099999999997
H      46.975449999999995     47.043699999999994     50.567999999999998
H      45.538349999999994     50.038200000000003     47.978099999999998
H      45.204849999999993     48.487599999999993     49.593000000000004
H      49.311449999999994     46.534399999999991     50.564899999999994
