22

C      46.739249999999998     47.624849999999995     50.599999999999994
C      47.489049999999999     49.009050000000009     50.272199999999998
C      46.831050000000005     46.989249999999998     49.129399999999997
C      48.906150000000004     48.508350000000000     50.003999999999998
C      47.781849999999999     47.358450000000005     47.938899999999997
C      48.757250000000006     48.278749999999995     48.306699999999999
C      47.483550000000001     47.333250000000000     46.499900000000004
C      49.486449999999998     49.008950000000006     47.428400000000003
C      47.977950000000000     48.313949999999998     45.677500000000002
C      49.286549999999998     48.925249999999998     46.076000000000001
H      45.662849999999999     47.952150000000010     50.789400000000001
H      47.400650000000006     46.772350000000003     51.100500000000004
H      47.132349999999995     49.760749999999994     50.851800000000004
H      47.781550000000003     49.808650000000000     49.349399999999996
H      47.224350000000008     46.008350000000000     49.077700000000000
H      45.892250000000004     47.274149999999999     48.652799999999999
H      49.106550000000006     47.667850000000001     50.680600000000005
H      49.725150000000006     49.068050000000007     49.866900000000001
H      46.666750000000000     46.554050000000004     46.598599999999998
H      50.337150000000001     49.991650000000000     47.316399999999994
H      47.590750000000007     49.042050000000003     44.899499999999996
H      49.758649999999996     49.614150000000002     45.263100000000001
