16

C      46.604274999999994     49.470849999999992     46.799799999999991
C      48.762264999999999     49.967350000000003     48.374499999999998
C      47.553314999999998     48.540450000000000     47.239000000000004
C      48.613394999999997     48.761049999999997     48.238699999999994
C      47.578384999999997     47.142150000000001     46.630700000000004
C      49.138294999999999     47.768349999999998     49.148400000000009
C      48.277844999999999     46.215449999999997     47.409600000000012
C      49.219494999999995     46.580249999999999     48.402799999999999
H      46.027625000000000     49.397449999999999     45.804199999999994
H      47.235714999999999     50.464849999999998     46.803300000000007
H      47.943844999999996     50.740150000000000     48.541000000000011
H      49.564284999999998     50.019549999999995     49.191100000000006
H      46.902214999999998     46.825850000000003     45.849400000000003
H      49.829394999999991     47.667749999999998     50.195800000000006
H      48.013964999999999     45.259850000000000     46.854900000000001
H      49.972375000000000     45.711350000000003     48.691200000000009
