19

C      45.062399999999997     46.879699999999993     47.168449999999993
C      46.112099999999998     48.917699999999996     48.107649999999992
C      47.126000000000005     49.381000000000000     48.934049999999999
C      46.264899999999997     47.625500000000002     47.667349999999999
C      48.303300000000007     48.481999999999999     48.646550000000005
C      47.742500000000007     47.610900000000001     47.538349999999994
C      49.711900000000000     48.258099999999999     48.981250000000003
C      48.686699999999988     46.842599999999997     46.795850000000002
C      50.601399999999998     47.892299999999999     47.866149999999990
C      50.120099999999994     47.161000000000001     46.774550000000005
H      45.616199999999992     46.069800000000001     46.535950000000000
H      44.379800000000003     46.342300000000002     47.845249999999993
H      45.158199999999994     49.540500000000009     47.796149999999997
H      47.088499999999996     50.143799999999999     49.826149999999998
H      50.281999999999996     48.926699999999997     49.683650000000000
H      48.652099999999990     45.856200000000001     46.418149999999997
H      51.620199999999997     47.803100000000001     48.021649999999994
H      50.814999999999998     46.496899999999997     46.173850000000002
H      44.533400000000000     47.715500000000006     46.528049999999993
