21

C      49.201200000000000     50.126749999999987     48.562549999999995
C      50.297200000000011     49.458650000000006     47.843950000000000
C      48.008000000000003     50.159549999999996     47.443150000000003
C      49.945399999999999     48.039850000000001     47.660250000000005
C      47.519800000000011     48.670550000000006     47.496549999999999
C      48.486899999999999     47.733350000000002     47.758550000000000
C      46.196700000000000     48.100049999999996     47.353549999999998
C      48.309000000000005     46.283149999999992     47.893749999999997
C      45.947700000000005     46.702749999999995     47.419049999999999
C      47.031399999999998     45.873149999999995     47.835549999999998
H      49.486300000000007     51.215850000000003     48.771550000000005
H      48.880699999999997     49.563749999999999     49.576149999999998
H      50.436100000000003     50.110249999999994     46.866450000000000
H      51.155200000000001     49.348950000000002     48.352649999999997
H      47.381900000000009     51.058449999999993     47.769250000000000
H      48.448600000000006     50.371750000000006     46.423850000000002
H      50.880800000000001     47.590450000000004     47.066549999999999
H      45.465899999999998     48.689750000000004     47.079750000000004
H      48.957700000000010     45.460849999999994     48.091450000000002
H      44.844799999999999     46.130549999999999     47.409149999999997
H      46.756100000000011     44.784149999999997     48.180549999999997
