5

C      47.905949999999997     48.284249999999993     48.172949999999986
H      48.910950000000000     48.611550000000008     48.995250000000006
H      47.869450000000001     48.552450000000007     47.004749999999994
H      47.089050000000000     48.934550000000002     48.233049999999999
H      47.887950000000004     47.065449999999998     48.143849999999993
