6

C      47.902949999999990     47.500399999999992     48.512299999999996
C      47.854649999999999     48.555999999999997     47.625600000000006
H      47.465150000000001     46.582599999999999     48.078699999999998
H      48.863750000000003     47.440299999999993     49.083699999999993
H      48.456650000000003     49.417400000000001     47.538700000000006
H      47.136249999999997     48.188400000000001     46.916300000000007
