49

C      49.613144999999989     47.290549999999996     47.022299999999987
C      50.752134999999996     48.278050000000000     46.964700000000001
C      46.154777999999993     50.789450000000002     47.615299999999998
C      47.422944999999999     51.612249999999996     47.574099999999994
C      48.336484999999996     47.535650000000011     47.733300000000007
C      50.373154999999997     49.476549999999996     47.599899999999998
C      46.669550999999998     49.469550000000005     47.988999999999997
C      48.827905000000001     51.395350000000001     47.789200000000001
C      48.033644999999993     49.006150000000012     48.060899999999997
C      49.050794999999994     49.997350000000004     47.847299999999997
C      49.883425000000003     45.972950000000004     47.175900000000006
C      51.269445000000005     45.428150000000002     47.051600000000001
C      52.193815000000001     46.430050000000001     46.549900000000001
C      52.016565000000000     47.770650000000010     46.771999999999998
C      44.901115000000019     51.128250000000001     46.960600000000007
C      44.554515000000023     52.540150000000004     46.793399999999998
C      45.743415000000013     53.320750000000004     47.005199999999995
C      46.997235000000003     52.983050000000006     47.368599999999994
C      49.026614999999993     44.743950000000005     47.455099999999995
C      49.411185000000003     43.625550000000004     48.246599999999994
C      50.818884999999995     43.052950000000003     47.957299999999996
C      51.558835000000002     44.035650000000004     47.113899999999994
C      47.568134999999998     45.012650000000001     47.663900000000005
C      47.340834999999998     46.566350000000007     47.762400000000007
C      45.978692600000002     47.040250000000007     47.726599999999998
C      45.611915000000010     48.453350000000007     48.069799999999994
C      43.934615000000008     50.134450000000001     47.548999999999999
C      44.233515000000025     48.932750000000006     47.954400000000000
C      48.321114999999992     42.785250000000005     48.760399999999997
C      47.303955000000002     43.917950000000005     48.890700000000002
C      45.142215000000007     45.913950000000007     48.211700000000000
H      51.165634999999995     50.187550000000009     47.721399999999996
H      49.557564999999997     52.203350000000000     48.016799999999996
H      53.031385000000000     46.132950000000001     46.039899999999996
H      52.770205000000004     48.550150000000009     46.861600000000003
H      43.718915000000010     53.107950000000010     46.272500000000001
H      45.561015000000012     54.419549999999994     46.958599999999997
H      48.053744999999992     53.631049999999995     47.506300000000003
H      51.222324999999998     42.135150000000003     47.716199999999994
H      52.312744999999993     43.207850000000001     46.820500000000003
H      47.005825000000002     44.887750000000004     46.777600000000000
H      42.968615000000000     50.293150000000004     47.160599999999995
H      43.165615000000003     48.281450000000000     48.122599999999998
H      46.337598999999997     43.620150000000002     49.160800000000002
H      47.531035000000003     44.492049999999999     49.960100000000004
H      44.367715000000004     45.546950000000002     47.287900000000000
H      44.542615000000012     46.459450000000004     48.800400000000003
H      45.645515000000003     45.078350000000007     48.838799999999999
O      48.330314999999999     41.580450000000006     48.934900000000006
