38

C      48.201899999999995     47.156849999999999     46.889819899999999
C      48.419800000000002     46.161850000000001     47.920819899999998
C      45.197400000000002     49.466750000000005     49.835819900000004
C      44.978300000000004     48.053049999999999     50.574419899999995
C      47.189200000000000     48.200050000000005     46.897719899999998
C      47.366199999999999     45.917749999999998     48.807819899999998
C      45.721200000000003     49.309250000000006     48.487219899999999
C      45.499499999999998     46.813249999999996     50.090419900000001
C      46.366000000000000     48.212750000000000     48.037419900000003
C      46.366900000000001     46.868650000000002     48.962919900000003
C      48.940899999999999     47.285750000000007     45.673319899999996
C      50.081299999999999     46.339749999999995     45.778119899999993
C      50.488199999999999     45.395350000000008     46.707119899999995
C      49.698799999999999     45.527950000000004     47.865119899999996
C      44.846899999999998     50.700350000000000     50.275919900000005
C      44.301900000000003     50.822850000000003     51.587619899999993
C      43.881300000000003     49.548249999999996     52.082019900000006
C      44.012500000000003     48.155850000000001     51.565619900000002
C      51.411300000000004     46.994650000000007     44.871219900000000
C      52.088900000000002     44.658649999999994     44.059519899999998
C      51.909100000000002     46.022549999999995     43.798019900000000
H      47.158600000000000     49.090249999999997     46.157519899999997
H      47.445300000000003     45.140649999999994     49.508619899999999
H      45.714399999999998     50.136150000000001     47.668219899999997
H      45.361300000000000     46.053849999999997     50.772319899999999
H      48.745899999999999     47.939549999999997     44.819619900000006
H      51.502400000000002     44.828450000000004     46.750919900000000
H      44.912700000000001     51.752250000000004     49.743919899999995
H      43.636699999999998     51.637050000000002     52.016619899999995
H      43.245600000000003     49.303550000000001     52.945680100000004
H      43.846800000000002     47.245350000000002     52.104719900000006
H      51.915500000000002     47.263750000000002     45.776419899999993
H      50.764400000000002     47.690150000000003     44.208719900000006
H      49.319900000000004     44.651550000000000     49.394619899999995
H      52.754399999999997     44.247749999999996     43.395719900000003
H      52.157199999999996     44.256249999999994     45.245419900000002
H      52.017900000000004     46.963850000000008     43.054319899999996
O      50.082500000000003     45.203950000000006     49.125719899999993
