6

C      47.376268999999979     48.004749999999994     48.497599999999998
C      48.385434999999987     48.043750000000003     47.403300000000009
H      47.630224999999982     48.162849999999992     49.666399999999996
H      46.475865000000013     47.728049999999996     48.011700000000005
H      49.524134999999987     48.093049999999991     47.545500000000004
H      47.769364999999979     48.271950000000004     46.333600000000004
