24

C      46.749910000000000     46.137400000000000     50.162250000000000
C      47.656739999999999     47.358390000000000     49.767449999999997
C      48.848450000000000     46.471050000000005     49.185050000000004
C      48.420339999999996     45.868970000000004     46.568349999999995
C      49.487850000000009     47.520610000000005     48.227850000000004
C      48.986480000000000     47.257050000000007     46.986850000000004
C      49.947870000000009     48.722649999999987     48.828550000000007
C      49.139380000000003     48.293689999999998     46.008449999999996
C      49.632350000000002     49.720730000000003     47.814050000000009
C      49.595410000000001     49.509860000000003     46.359250000000003
H      47.038660000000007     48.088189999999997     48.932950000000005
H      47.976659999999995     48.056120000000007     50.620649999999998
H      45.922340000000005     46.852050000000006     50.532550000000001
H      47.188290000000009     45.500299999999996     51.120549999999994
H      46.361300000000000     45.669179999999997     49.241849999999999
H      47.265240000000006     45.985380000000006     46.528850000000006
H      49.743389999999991     46.717500000000001     50.028750000000002
H      48.767020000000002     45.407690000000002     49.051150000000007
H      48.644000000000005     45.196070000000006     45.695049999999995
H      48.476610000000008     45.255560000000003     47.383650000000003
H      50.077659999999995     48.657359999999997     49.906850000000006
H      49.010130000000004     48.147869999999998     44.879450000000006
H      49.581959999999995     50.803929999999994     47.912549999999996
H      49.593940000000003     50.423609999999996     45.730149999999995
