6

C      48.605049999999991     48.401549999999993     48.017449999999997
C      47.443049999999999     47.543549999999996     48.052850000000007
H      49.201549999999997     48.593649999999997     49.052949999999996
H      49.025549999999996     48.520350000000001     46.947050000000004
H      46.905749999999998     47.790750000000003     48.933149999999998
H      46.798450000000003     47.406350000000003     47.147750000000002
