25

C      46.709299999999992     47.466200000000001     49.959550000000000
C      49.359899999999996     50.791400000000003     50.112449999999995
C      47.464699999999993     45.259300000000003     45.850949999999997
C      49.099699999999999     49.541900000000005     49.817250000000001
C      47.817099999999996     45.762800000000006     47.307050000000004
C      48.106999999999999     49.134200000000000     48.691950000000006
C      47.859099999999998     47.681500000000007     48.945949999999996
C      47.704499999999996     49.911800000000007     47.619950000000003
C      47.254400000000004     46.965000000000011     47.634650000000008
C      46.570900000000002     49.300000000000004     46.857150000000004
C      46.417400000000001     47.900200000000005     46.741550000000004
H      46.914000000000001     46.332500000000003     50.461449999999999
H      45.890999999999998     47.049500000000002     49.454049999999995
H      46.788899999999998     44.332799999999999     45.663950000000000
H      48.708500000000001     51.667200000000001     49.881050000000002
H      50.381900000000002     50.978900000000003     50.879450000000006
H      47.226399999999998     46.117800000000010     45.120549999999994
H      49.536100000000005     48.477100000000000     50.011849999999995
H      48.239199999999997     44.931400000000004     45.278250000000000
H      48.680700000000002     45.081499999999998     47.956050000000005
H      47.808899999999994     51.069499999999998     47.137850000000000
H      48.956099999999999     47.194700000000005     48.924949999999995
H      46.100900000000003     49.752400000000002     46.175049999999999
H      45.618099999999998     47.479300000000002     46.075550000000007
H      46.201500000000003     48.331200000000003     50.521349999999998
