7

C      47.508699999999990     48.246899999999989     48.364599999999989
C      47.617800000000010     48.036699999999996     46.974699999999999
H      46.469299999999997     48.708500000000001     48.287599999999998
H      48.359699999999997     47.272300000000001     46.332700000000003
H      46.926300000000005     48.585700000000003     46.331299999999999
H      49.530700000000003     48.727699999999999     48.952299999999994
S      48.791100000000007     47.831000000000003     49.668700000000001
