9

C      49.194349999999993     48.351149999999997     48.583399999999997
C      48.318549999999995     48.395050000000012     47.732400000000005
C      46.906050000000000     47.937049999999999     48.055699999999995
H      49.470549999999989     47.265950000000004     48.804600000000001
H      46.640049999999995     48.656050000000008     49.011500000000005
H      49.750450000000001     49.268750000000011     48.379700000000007
H      48.476450000000000     49.299650000000000     46.988499999999995
H      46.249549999999999     48.117050000000006     47.170400000000008
H      47.265949999999997     46.700350000000000     48.368000000000002
