6

C      47.624099999999999     48.389949999999992     47.835599999999992
C      48.547200000000004     47.352350000000001     48.065299999999993
H      49.465899999999991     47.871350000000007     48.402699999999996
H      47.502700000000004     49.535049999999998     48.058099999999996
H      48.361499999999992     46.464950000000002     47.597300000000004
H      46.534100000000009     48.294650000000004     47.735799999999998
