6

C      48.752299999999991     47.951200000000000     48.244599999999991
C      47.544899999999998     47.731400000000008     47.633399999999995
H      49.097399999999993     47.248699999999999     48.893000000000001
H      49.232500000000002     48.991299999999995     48.065500000000000
H      46.767499999999998     47.008700000000005     47.828400000000002
H      47.106899999999996     48.702600000000004     47.106999999999999
