6

C      47.939949999999996     47.970299999999995     48.533049999999989
C      48.146849999999993     48.155900000000003     47.330749999999995
H      49.014049999999997     48.123999999999995     49.181150000000002
H      47.262050000000002     47.169499999999999     49.002049999999997
H      46.985250000000001     48.180499999999995     46.818849999999998
H      49.014749999999999     48.830500000000001     47.166950000000000
