6

C      48.478399999999986     47.483399999999989     47.978849999999994
C      47.494000000000000     48.403400000000005     47.955759999999998
H      49.196899999999999     47.493499999999997     48.666670000000003
H      48.945800000000006     47.084999999999994     47.123120000000000
H      46.803100000000001     48.431299999999993     47.046289999999999
H      46.983599999999996     48.915000000000006     48.953710000000001
