47

C      49.161899999999996     46.748799999999989     48.560244999999988
C      49.695700000000002     48.011399999999995     48.756344999999996
C      44.810000000000002     48.670000000000002     49.590944999999998
C      45.416499999999999     50.015500000000003     49.962944999999991
C      47.776000000000010     46.630399999999995     48.646744999999996
C      48.994700000000009     49.017399999999995     49.522644999999997
C      45.516100000000009     47.695899999999995     49.038844999999995
C      46.755700000000004     50.081400000000002     49.719244999999994
C      46.972200000000001     47.792700000000011     48.806645000000003
C      47.594300000000004     48.964799999999997     49.382844999999996
C      49.801500000000004     45.897400000000005     47.475044999999994
C      51.294400000000010     46.015600000000006     47.307944999999997
C      51.838300000000004     47.224599999999995     47.986744999999999
C      51.005900000000011     48.337800000000001     48.267144999999999
C      43.636800000000008     48.426000000000002     50.498644999999996
C      43.080400000000012     49.658400000000000     50.934844999999996
C      43.541100000000000     50.890300000000011     51.317644999999999
C      44.746300000000005     51.277500000000003     50.574544999999993
C      49.068600000000004     45.059700000000007     46.671244999999999
C      49.659800000000004     44.399799999999999     45.567024999999994
C      50.913200000000003     44.658799999999999     45.325334999999995
C      51.816800000000001     45.388800000000003     46.118375000000000
C      46.983500000000006     45.454099999999997     48.000644999999992
C      47.677700000000002     44.874399999999994     46.952945000000000
C      50.008200000000002     50.119700000000009     49.437844999999996
C      52.433100000000010     50.498600000000010     48.004444999999997
C      51.113500000000002     49.940500000000000     48.495144999999994
C      49.815800000000010     51.298100000000005     50.420845000000000
H      45.090200000000010     46.671199999999999     49.091044999999994
H      46.992000000000004     51.144099999999995     49.721444999999989
H      43.003500000000003     47.645700000000005     50.404944999999998
H      42.066299999999998     49.326800000000006     51.441144999999992
H      42.901700000000005     51.666200000000003     51.630745000000005
H      45.129800000000003     52.296000000000006     50.555444999999992
H      49.037500000000009     43.703999999999994     44.825344999999999
H      51.055599999999998     44.128799999999998     44.369254999999995
H      52.957900000000009     45.388300000000001     45.865694999999995
H      45.984500000000011     45.119200000000006     48.252744999999997
H      47.143600000000006     44.127200000000002     46.311714999999992
H      52.230300000000000     50.753399999999999     46.884944999999995
H      52.827500000000001     51.367699999999999     48.512244999999993
H      53.093900000000005     49.486500000000007     48.312644999999996
H      50.603200000000001     52.134299999999996     50.347844999999992
H      48.995500000000007     51.935700000000011     50.117744999999999
H      53.933700000000002     48.053400000000011     47.375644999999992
H      50.122100000000003     50.916000000000011     51.458444999999998
S      53.658000000000001     47.214800000000011     48.262244999999993
