22

C      50.030399999999986     46.597949999999983     46.743949999999984
C      50.290499999999994     49.508249999999997     48.983350000000002
C      49.446899999999999     46.563849999999995     48.270949999999999
C      49.475399999999993     49.730950000000000     47.842050000000000
C      48.307599999999994     47.525549999999988     48.080350000000010
C      48.214199999999991     48.961149999999996     47.906649999999999
C      47.149199999999993     46.709550000000000     47.756850000000000
C      47.018999999999991     49.487049999999989     48.352550000000008
C      45.966600000000000     47.297649999999997     47.845950000000002
C      45.951300000000003     48.655249999999988     48.234750000000005
H      50.989800000000002     47.054449999999996     46.462649999999996
H      49.876899999999992     45.370449999999998     46.572550000000007
H      49.393299999999996     47.291049999999991     46.066749999999999
H      50.405900000000003     48.457549999999991     49.167150000000007
H      49.217100000000002     45.489249999999991     48.410650000000004
H      50.413000000000011     47.048650000000002     48.561350000000004
H      49.336100000000002     50.612549999999992     47.488950000000003
H      50.548599999999993     50.177149999999990     49.933250000000001
H      47.514700000000005     45.577249999999999     47.777349999999998
H      46.952200000000005     50.629550000000002     48.390450000000001
H      45.010199999999998     46.654549999999993     47.814550000000011
H      45.056500000000000     49.421649999999993     48.373350000000002
