16

C      46.668599999999991     49.396649999999987     46.848049999999986
C      46.036499999999997     47.085849999999994     48.757249999999992
C      47.550199999999997     48.876149999999996     47.737549999999992
C      47.156400000000005     47.417949999999998     48.384349999999991
C      48.897399999999998     49.317649999999993     48.014049999999990
C      48.231200000000001     46.460549999999998     48.435349999999993
C      49.831800000000001     48.309649999999998     48.325949999999999
C      49.553299999999993     46.941449999999996     48.472049999999989
H      45.801299999999998     48.746949999999998     46.482749999999989
H      46.866100000000003     50.391850000000005     46.426150000000000
H      45.953600000000002     46.334849999999996     49.573850000000000
H      45.170999999999999     47.690149999999996     48.252549999999992
H      49.190300000000001     50.342950000000002     48.202349999999988
H      47.934899999999999     45.608149999999995     49.005049999999990
H      50.829000000000001     48.592049999999993     48.268650000000001
H      50.649999999999991     46.343849999999996     48.639149999999994
