5

C      47.911599999999993     48.102399999999989     47.737150000000000
H      47.692000000000000     47.146599999999999     47.244550000000004
H      48.815300000000001     48.481299999999997     48.421949999999995
H      47.505400000000002     48.026299999999999     48.755449999999996
H      47.184699999999999     48.853400000000001     47.522750000000002
