40

C      44.627149999999986     47.674399999999984     47.738499999999988
C      45.139450000000011     47.054800000000000     48.994199999999999
C      48.790450000000007     50.093099999999993     47.074899999999992
C      49.356850000000009     49.084699999999998     48.055699999999995
C      45.428650000000005     48.669499999999999     47.011000000000003
C      46.432750000000013     47.486699999999999     49.453200000000002
C      47.435149999999993     50.245300000000000     47.079299999999996
C      48.629950000000008     48.188599999999994     48.951699999999995
C      46.643350000000012     49.208799999999997     47.647900000000000
C      47.213149999999999     48.243200000000002     48.545300000000005
C      43.404949999999999     47.121499999999997     46.985800000000005
C      42.937250000000006     45.866900000000001     47.558600000000006
C      43.532449999999997     45.433999999999997     48.710400000000000
C      44.351950000000002     45.967900000000000     49.543299999999995
C      49.764650000000003     51.075199999999995     46.734999999999992
C      51.100149999999999     51.308899999999994     46.981199999999994
C      51.612050000000011     50.263799999999989     47.891799999999996
C      50.720450000000000     49.342900000000000     48.320100000000004
C      53.007649999999998     50.655799999999999     48.383599999999994
C      51.971650000000011     52.346999999999994     46.399200000000000
C      43.131050000000002     43.853999999999999     49.079199999999993
H      46.718050000000005     47.178199999999990     50.413499999999992
H      49.084450000000004     47.314699999999988     49.555000000000000
H      42.225949999999997     45.187199999999990     46.853100000000005
H      49.168350000000004     51.887499999999989     46.041499999999992
H      51.402750000000012     48.710099999999997     49.037100000000002
H      53.774050000000003     49.760199999999998     48.601800000000004
H      53.121650000000002     52.074100000000001     46.244800000000005
H      45.756050000000002     49.008699999999990     45.189100000000003
H      46.074450000000013     51.496099999999998     46.577400000000004
H      42.932249999999996     42.943899999999999     48.309499999999993
H      43.838849999999994     43.436499999999995     49.797000000000004
H      42.362650000000002     44.043199999999999     49.811500000000002
H      44.964449999999999     44.132999999999996     50.810899999999997
O      53.278450000000007     51.844600000000000     48.526299999999999
O      51.436949999999996     53.056100000000001     45.553900000000006
O      42.700450000000004     47.700099999999992     46.144500000000001
O      44.682050000000004     45.155000000000001     50.684099999999994
O      45.011250000000004     49.175999999999988     45.859999999999992
O      47.000649999999993     51.339299999999994     46.328600000000002
