22

C      45.681199999999997     48.848199999999991     45.783949999999990
C      45.573599999999999     47.454200000000000     50.444249999999990
C      47.007900000000006     48.914599999999993     46.033849999999994
C      45.866700000000009     47.946699999999993     48.900649999999992
C      47.769900000000007     48.330699999999993     47.294649999999997
C      47.436099999999996     48.164199999999994     48.583549999999995
C      49.140699999999995     48.292499999999990     46.706249999999990
C      48.384900000000002     47.701299999999989     49.436450000000001
C      50.156500000000008     48.123099999999994     47.681649999999998
C      49.765799999999999     47.745599999999996     48.959849999999996
H      45.693700000000007     47.103200000000001     48.115049999999989
H      45.317899999999995     49.484399999999994     44.873449999999998
H      44.933800000000005     48.762199999999993     46.516849999999998
H      46.482900000000001     47.713699999999989     51.126550000000002
H      44.707700000000003     48.140199999999993     50.877849999999988
H      47.649400000000000     49.521000000000001     45.396149999999999
H      45.086100000000002     46.478999999999999     50.467250000000000
H      45.471000000000004     48.773399999999995     48.517149999999994
H      49.169200000000004     48.536599999999993     45.565249999999999
H      48.079499999999996     47.376700000000000     50.494149999999998
H      51.292299999999997     48.241099999999989     47.681449999999991
H      50.463600000000000     47.552999999999997     49.638849999999998
