16

C      49.106549999999999     46.465999999999994     47.070299999999989
C      46.202550000000002     47.667400000000001     46.545199999999994
C      48.759749999999997     47.733999999999995     47.485499999999995
C      47.331950000000006     48.086799999999997     47.291799999999995
C      49.601050000000001     48.877999999999986     47.934500000000007
C      46.762250000000009     48.934100000000001     48.436099999999996
C      48.908749999999998     49.908799999999999     48.603899999999989
C      47.470650000000006     49.946499999999986     49.015499999999996
H      48.672150000000002     45.448700000000002     46.645099999999999
H      50.267350000000008     46.250900000000001     47.333599999999997
H      45.345750000000010     48.625299999999996     46.670699999999997
H      46.360950000000003     46.695800000000006     45.969699999999996
H      50.654249999999990     49.149900000000002     48.128699999999988
H      45.886650000000003     48.590000000000003     48.970099999999995
H      49.643150000000006     50.551299999999998     49.151599999999995
H      47.101250000000007     50.191999999999993     50.030300000000004
