5

C      48.172499999999985     48.103949999999998     48.027799999999992
H      48.928700000000006     48.407950000000007     47.434899999999999
H      47.071299999999994     48.125250000000001     47.282899999999998
H      48.194000000000003     47.029750000000000     48.717100000000002
H      47.834299999999999     48.970250000000000     48.556399999999996
