15

C      48.796050000000001     47.037414999999996     48.250299999999996
C      49.160849999999996     47.607764999999986     46.224199999999996
C      47.816850000000002     48.860174999999998     47.240299999999991
C      47.724250000000005     47.942854999999994     48.234899999999996
C      49.367150000000009     46.619784999999993     49.605199999999996
C      46.714050000000000     48.078244999999995     49.407100000000000
H      49.845150000000004     47.437964999999991     45.292000000000002
H      50.398849999999996     46.296835000000002     49.678899999999999
H      45.601150000000004     47.939904999999996     49.200199999999995
H      46.868150000000000     47.955664999999996     50.554699999999997
H      46.599750000000000     49.211044999999999     49.474299999999985
H      46.941150000000000     49.703164999999998     47.448099999999997
N      49.565950000000001     46.872805000000000     47.247199999999992
N      48.477350000000001     48.662745000000001     46.105099999999993
O      48.940950000000001     46.802354999999991     50.707999999999998
