6

C      48.191649999999996     48.044449999999983     48.601949999999988
C      47.990650000000002     47.866349999999997     47.290449999999993
H      47.298850000000002     48.276750000000007     49.262149999999998
H      49.175349999999995     48.122450000000001     49.358150000000002
H      46.824650000000005     47.723249999999993     47.115849999999995
H      48.851450000000000     47.757049999999992     46.641849999999998
