22

C      48.018199999999993     49.193249999999999     49.087649999999989
C      48.801400000000015     50.229050000000001     48.404750000000000
C      48.653500000000008     47.965950000000007     49.496449999999996
C      47.150400000000005     48.672250000000005     47.663049999999998
C      48.400700000000015     46.879950000000008     48.576749999999997
C      47.620300000000000     47.197749999999999     47.413950000000000
C      48.585800000000006     45.419049999999999     48.870750000000001
C      47.236900000000006     46.236950000000007     46.537149999999997
C      48.170900000000003     44.585949999999997     47.908549999999998
C      47.540800000000004     44.770049999999998     46.595649999999999
C      48.419600000000003     51.520750000000007     48.249949999999998
H      47.277000000000001     49.496549999999999     49.875950000000003
H      49.993600000000001     49.947050000000004     48.054949999999998
H      49.266400000000004     48.138750000000002     50.419950000000000
H      46.006399999999999     48.690550000000002     47.816449999999996
H      47.568399999999997     49.191150000000007     46.759749999999997
H      48.948900000000009     44.650750000000002     49.667950000000005
H      46.564000000000007     46.605050000000006     45.580050000000000
H      48.325400000000002     43.547849999999997     48.430949999999996
H      47.163700000000006     44.127650000000003     45.785550000000001
H      47.394900000000007     51.657650000000004     48.327550000000002
H      49.201400000000007     52.452150000000003     47.936650000000000
