15

C      49.697050000000004     47.951799999999992     49.850484999999992
C      48.874150000000000     47.967999999999996     48.668075000000002
C      47.459550000000007     47.835900000000002     48.707644999999999
C      49.155050000000003     48.320799999999998     47.309145000000001
C      46.455750000000009     47.438499999999998     47.780625000000001
C      48.267850000000010     47.881599999999999     46.317295000000001
C      46.932250000000010     47.459899999999998     46.501325000000001
H      47.020049999999998     47.967400000000005     49.618985000000002
H      49.212550000000007     47.194099999999999     50.666685000000001
H      50.556349999999995     47.648100000000007     49.232115000000000
H      50.084949999999992     48.533899999999996     47.100034999999998
H      45.443650000000005     46.969100000000005     48.260244999999998
H      48.860750000000010     47.790600000000005     45.333314999999999
H      46.203450000000004     47.435700000000004     45.823635000000003
H      49.736750000000001     49.030899999999995     50.102685000000001
