6

C      47.452649999999991     48.225599999999993     47.668124999999996
C      48.114249999999998     47.692099999999996     48.723735000000005
H      47.264049999999997     47.983699999999999     46.632325000000002
H      47.339449999999999     49.426000000000002     47.737144999999998
H      47.898850000000010     46.573999999999998     48.865535000000008
H      48.735950000000003     48.273800000000008     49.367674999999998
