22

C      49.585899999999995     49.109449999999995     49.653149999999997
C      50.416699999999992     48.155949999999997     48.730449999999998
C      48.039599999999993     49.362949999999998     49.450150000000001
C      49.613099999999989     46.794249999999998     48.437249999999999
C      47.357299999999995     48.244850000000000     48.597850000000001
C      48.137100000000004     47.116349999999997     48.144150000000003
C      46.128599999999992     48.709249999999997     48.152549999999998
C      47.610399999999998     46.540450000000000     46.899549999999998
C      45.658099999999990     47.782449999999997     47.066549999999999
C      46.322999999999993     46.718350000000001     46.403650000000006
H      49.635599999999997     48.280050000000003     50.464350000000003
H      50.273299999999992     49.795349999999992     50.110450000000007
H      51.471699999999998     48.032150000000001     49.036949999999997
H      50.333100000000002     48.858950000000000     47.698050000000002
H      47.611800000000002     49.322150000000001     50.514050000000005
H      47.761600000000001     50.406950000000002     48.955950000000009
H      49.836100000000002     45.986649999999997     49.226950000000009
H      50.094699999999989     46.345349999999996     47.633550000000007
H      45.744000000000000     49.731850000000001     48.389150000000008
H      47.950299999999999     45.593049999999998     46.350249999999996
H      44.528300000000002     47.993749999999999     46.494350000000004
H      45.913799999999995     46.335949999999997     45.485949999999995
