5

C      48.031049999999986     47.880299999999991     48.340949999999999
H      48.720150000000004     47.149799999999999     48.725650000000002
H      48.099149999999995     48.911200000000001     48.621350000000007
H      47.279849999999996     47.088799999999999     48.077250000000006
H      48.193449999999999     48.381299999999989     47.274349999999998
