20

C      49.634949999999989     47.825649999999989     49.107249999999993
C      50.030150000000006     46.230350000000001     49.098550000000003
C      47.967649999999992     46.915649999999999     46.805149999999998
C      48.600349999999992     48.435150000000007     48.835250000000002
C      47.706649999999996     47.480850000000004     48.180149999999998
C      48.148150000000001     49.511250000000004     49.380250000000004
C      46.364149999999995     47.508650000000003     48.646250000000009
C      46.742449999999991     49.768650000000008     49.402650000000008
C      45.863349999999997     48.687950000000001     49.210650000000001
H      49.571349999999995     45.724050000000005     48.286950000000004
H      50.466850000000008     48.339449999999999     49.825050000000005
H      48.965850000000003     46.765249999999995     46.552050000000008
H      49.268950000000004     45.519850000000005     49.634050000000002
H      51.157750000000007     46.175750000000008     48.985349999999997
H      47.756149999999991     45.665149999999997     46.745350000000002
H      47.486649999999997     47.704650000000001     45.900149999999996
H      48.742949999999993     50.184950000000001     50.099850000000004
H      45.764150000000001     46.842650000000006     48.393349999999998
H      46.416449999999998     50.480149999999995     50.097050000000010
H      44.842249999999993     49.136250000000004     49.453249999999997
