20

C      48.393699999999995     49.920849999999994     49.694249999999997
C      50.352399999999989     47.315849999999998     48.365650000000002
C      48.043199999999999     48.515749999999997     49.311950000000010
C      48.866799999999998     47.537149999999997     48.614250000000013
C      46.540999999999997     48.206150000000001     49.213250000000002
C      48.035700000000006     46.382350000000002     48.287550000000010
C      45.809700000000007     47.216549999999998     48.642050000000012
C      46.716800000000006     46.241650000000000     48.154050000000012
C      50.588500000000010     47.091749999999998     46.850450000000009
H      49.286299999999983     50.592150000000004     49.507050000000007
H      47.760099999999994     50.711449999999999     49.272950000000009
H      50.679200000000009     46.349950000000000     48.888450000000006
H      51.134599999999992     48.036050000000003     48.651750000000007
H      46.300100000000000     49.395249999999997     49.394050000000007
H      48.659699999999987     45.554549999999999     47.959450000000004
H      44.731200000000001     47.254750000000001     48.465750000000000
H      46.101399999999998     45.288550000000001     47.965650000000011
H      51.171000000000006     46.028649999999999     46.656950000000009
H      49.638700000000000     47.554050000000004     46.305750000000003
H      51.268799999999999     47.797550000000001     46.345250000000007
