6

C      47.656849999999984     47.892049999999998     48.373574999999988
C      48.547449999999998     48.049250000000001     47.315014999999995
H      47.692350000000005     48.542149999999999     49.243585000000003
H      46.756850000000000     47.316750000000006     48.199824999999997
H      49.243150000000000     48.852950000000000     47.634344999999996
H      48.884850000000000     47.147050000000000     46.756414999999997
