6

C      47.476800000000004     47.689249999999994     47.839500000000001
C      48.658000000000001     48.181390000000007     48.061700000000002
H      46.767499999999998     47.529249999999998     48.624000000000009
H      46.930100000000010     47.760770000000001     46.855600000000010
H      49.006000000000000     48.215379999999996     49.144399999999990
H      49.232500000000002     48.470750000000002     47.247600000000006
