10

C      47.128099999999996     47.730399999999989     49.675049999999992
C      47.418099999999995     48.177199999999992     48.540550000000010
C      49.091899999999995     47.721599999999995     46.682050000000004
C      48.820599999999999     47.814599999999999     48.029750000000007
H      47.817300000000003     47.098499999999994     50.152749999999997
H      46.712500000000006     48.901500000000006     48.184049999999999
H      49.468900000000005     47.323399999999992     48.833350000000010
H      48.336399999999998     47.949299999999994     45.847250000000003
H      49.972999999999999     47.612499999999997     46.163449999999997
H      46.027000000000001     47.799999999999990     50.013850000000005
