17

C      50.010099999999994     48.029299999999992     46.439249999999987
C      49.427100000000003     46.675700000000006     49.310249999999996
C      48.704000000000001     47.836300000000008     47.381349999999998
C      48.476600000000005     46.996899999999997     48.581649999999996
C      47.879000000000005     48.863900000000015     47.802850000000007
C      47.234900000000003     46.781000000000006     49.337850000000003
C      46.462100000000000     48.647500000000008     47.956350000000000
C      46.139700000000005     47.504700000000000     48.783549999999991
H      50.311100000000003     46.813400000000001     48.637349999999998
H      50.853200000000001     47.357600000000005     46.591449999999995
H      50.083800000000004     49.078400000000016     46.357450000000000
H      49.322700000000005     46.717399999999998     50.431750000000008
H      49.486000000000004     47.677100000000010     45.568249999999992
H      47.990000000000002     49.912300000000002     47.337850000000003
H      47.241000000000000     46.087699999999998     50.150549999999996
H      45.563200000000002     49.394400000000005     47.813350000000000
H      45.146799999999999     47.108699999999999     48.818550000000002
