18

C      46.596249999999991     48.593129999999988     46.866399999999985
C      49.086449999999999     47.676259999999999     45.832599999999999
C      47.249049999999997     47.821479999999994     47.530300000000011
C      48.637649999999994     47.859949999999998     47.381399999999999
C      46.741050000000001     47.311080000000004     48.817599999999999
C      49.520350000000008     48.089810000000000     48.484500000000011
C      47.789150000000006     47.373339999999999     49.949200000000005
C      49.116550000000004     47.732709999999997     49.881900000000002
H      49.844650000000001     47.429550000000006     50.610699999999994
H      50.196449999999999     47.603489999999994     45.705900000000000
H      45.507750000000001     48.297259999999994     47.013300000000001
H      46.713250000000002     49.656180000000006     46.468499999999992
H      48.397050000000007     48.529669999999996     45.344899999999996
H      48.496949999999998     46.924869999999999     45.411299999999997
H      46.221050000000005     46.343819999999994     48.803899999999999
H      50.492249999999999     48.364729999999994     48.025099999999995
H      45.898150000000001     47.861530000000002     49.673299999999998
H      47.478449999999995     46.573610000000002     50.655100000000004
