22

C      49.227649999999983     48.467550000000003     50.375799999999998
C      48.335650000000001     47.161750000000005     50.403400000000005
C      48.250649999999993     49.512350000000005     49.621899999999997
C      48.722149999999999     46.660450000000004     48.919699999999992
C      47.642849999999996     49.031350000000010     48.340599999999995
C      48.241450000000000     47.798850000000009     47.991299999999995
C      46.747950000000003     49.587550000000000     47.325599999999994
C      48.024050000000003     47.270050000000005     46.697199999999995
C      46.527050000000003     48.994750000000003     46.022800000000004
C      47.176549999999992     47.800550000000008     45.796099999999996
H      50.079050000000009     48.144250000000007     49.874300000000005
H      49.637749999999997     49.142550000000007     51.144599999999997
H      47.252150000000000     47.062050000000006     50.394400000000005
H      48.908149999999992     46.303850000000004     51.118799999999993
H      47.211950000000002     49.517550000000007     50.250900000000001
H      48.764449999999997     50.447550000000000     49.420900000000003
H      48.508449999999996     45.552450000000000     48.795199999999994
H      49.798850000000002     46.402450000000009     48.514399999999995
H      45.975650000000002     50.401450000000004     47.545500000000004
H      48.187049999999999     46.195450000000001     46.464500000000001
H      45.920949999999991     49.712650000000004     45.253500000000003
H      47.010949999999994     47.272550000000003     44.855400000000003
