35

C      45.167600000000000     50.586624999999977     50.960574999999992
C      47.338200000000001     48.817446999999980     51.795574999999992
C      46.506000000000000     50.241724999999981     50.292175000000000
C      47.616799999999998     49.737394999999978     51.001275000000000
C      46.504100000000008     50.111644999999982     48.804475000000004
C      48.922200000000004     50.075154999999981     50.345575000000004
C      47.565200000000004     49.751564999999978     48.044274999999999
C      48.890299999999996     49.562444999999983     48.643174999999999
C      50.751500000000007     45.688914999999966     47.010664999999996
C      49.638599999999997     48.235026999999981     48.231175000000000
C      50.748800000000003     47.143914999999986     46.351714999999999
C      50.451599999999999     48.333339999999978     46.966655000000003
C      50.873599999999996     47.116514999999993     45.009914999999999
C      50.260999999999996     49.489334999999983     46.147885000000002
C      51.229900000000001     48.224096999999979     44.147754999999997
C      50.732200000000006     49.359114999999981     44.831294999999997
H      49.043000000000006     51.192084999999992     50.540375000000004
H      44.259100000000004     51.006344999999982     50.141275000000000
H      45.347600000000000     50.724134999999983     52.066775000000000
H      47.985700000000008     47.918689799999981     51.809375000000010
H      47.296000000000006     48.840226999999985     52.897174999999997
H      45.459299999999999     50.383504999999978     48.386775000000000
H      49.785600000000002     49.585424999999979     50.751075000000000
H      47.617400000000004     49.905224999999980     46.717855000000000
H      49.669200000000004     50.336334999999984     48.148575000000001
H      44.828500000000005     49.533784999999980     51.157775000000001
H      51.740899999999996     45.452114999999992     47.157775000000001
H      50.213900000000010     45.610814999999995     47.987575000000000
H      50.452600000000004     47.961647999999983     49.001575000000003
H      51.050300000000007     46.253315000000008     44.443075000000000
H      50.305400000000006     50.624914999999980     46.163955000000001
H      51.506299999999996     48.207034999999983     43.102825000000003
H      50.502099999999999     50.341064999999979     44.121445000000001
H      50.186900000000009     44.807915000000008     46.824095000000000
H      48.924599999999998     47.391715000000005     48.258074999999998
