8

C      48.016700000000000     48.657899999999998     48.696749999999987
C      47.944499999999991     47.605299999999993     47.613849999999999
H      47.834199999999996     46.598099999999995     47.924250000000001
H      46.932500000000005     48.787399999999998     49.069649999999996
H      48.813400000000001     48.369999999999997     49.269250000000000
H      47.257399999999990     47.810399999999994     46.730750000000000
H      49.067499999999995     47.493400000000001     47.208949999999987
H      48.360699999999994     49.401900000000005     47.954049999999995
