6

C      48.223999999999990     48.241621999999992     48.536049999999982
C      47.857599999999998     47.746745000000004     47.407249999999991
H      47.501100000000001     46.784044999999992     47.166550000000001
H      47.914600000000000     47.475545000000011     49.223950000000002
H      48.498899999999999     49.215955000000008     48.797550000000001
H      48.018000000000001     48.647326000000007     46.776049999999998
