22

C      48.233999999999995     49.786049999999989     49.745134999999998
C      47.643700000000010     48.675950000000000     50.328334999999996
C      47.667000000000002     50.008150000000001     48.276147999999999
C      48.398499999999999     47.598249999999993     49.459155000000003
C      47.703500000000005     48.703050000000005     47.505935000000029
C      47.772999999999996     47.447850000000003     48.197219000000004
C      47.492300000000000     48.696849999999998     46.065535000000025
C      47.250600000000006     46.221549999999993     47.726475000000001
C      47.012299999999996     47.482050000000001     45.629734999999989
C      46.768799999999999     46.240049999999997     46.321635000000022
H      48.004199999999997     50.852549999999994     50.546595000000003
H      49.337000000000003     49.954949999999997     49.770984999999996
H      47.922700000000006     48.462649999999996     51.519764999999992
H      46.512000000000000     48.547349999999994     50.197604999999996
H      48.236599999999996     50.839250000000007     47.655857400000002
H      46.736199999999997     50.456649999999996     48.259035000000004
H      48.177800000000005     46.555049999999994     49.691765000000004
H      49.500100000000003     47.775450000000006     49.203715000000003
H      47.640400000000000     49.746150000000000     45.639935000000008
H      47.527299999999997     45.147450000000006     48.190443000000002
H      46.499899999999997     48.014650000000003     44.480235000000008
H      46.695999999999998     45.283450000000002     45.762934999999999
