44

C      46.355499999999992     45.343114999999990     48.266599999999990
C      49.254299999999994     49.409815000000002     47.167000000000002
C      46.232499999999995     49.128915000000006     51.259500000000003
C      47.110400000000006     46.180814999999996     47.402600000000007
C      46.154299999999999     45.861715000000004     49.631000000000000
C      48.525399999999998     48.191215000000000     46.738700000000009
C      45.958399999999997     47.671615000000003     51.117999999999995
C      48.820099999999989     49.996314999999996     48.503299999999996
C      47.165500000000002     49.837715000000003     50.527500000000003
C      47.666400000000003     47.572114999999997     47.682699999999997
C      46.579599999999999     47.135314999999999     49.820200000000000
C      47.990899999999996     49.330914999999990     49.468599999999995
C      47.399099999999997     48.055315000000007     49.115099999999998
C      45.962699999999998     43.942014999999998     47.786100000000005
C      46.180399999999999     43.675044999999997     46.438699999999997
C      46.743899999999996     44.581514999999996     45.556800000000003
C      47.313799999999993     45.842415000000003     46.117699999999999
C      48.131500000000010     46.506715000000000     45.076200000000000
C      48.977899999999998     47.518214999999998     45.530900000000003
C      50.418399999999998     49.918215000000004     46.502200000000002
C      50.655099999999997     51.340415000000007     46.656199999999998
C      49.981800000000000     51.937415000000001     47.672100000000000
C      49.149499999999996     51.358014999999995     48.706500000000005
C      51.168999999999990     48.885914999999997     45.590700000000005
C      50.353899999999996     47.842115000000007     44.972900000000003
C      48.968600000000002     45.693515000000005     44.157400000000003
C      45.138799999999996     46.634715000000000     51.719099999999997
H      49.454299999999996     46.251615000000001     43.414000000000001
H      47.353299999999997     50.931515000000005     50.891800000000003
H      45.700699999999998     49.556714999999997     52.074399999999997
H      45.344999999999999     43.045185000000004     46.032400000000003
H      46.682800000000007     44.319414999999999     44.417300000000004
H      51.044599999999996     51.721114999999998     45.672699999999999
H      49.749000000000002     52.954814999999996     48.001500000000007
H      48.596300000000006     51.742715000000004     49.673500000000004
H      51.995899999999999     48.914315000000002     44.633800000000001
H      51.106900000000003     47.465014999999994     44.292700000000004
H      44.004100000000001     46.858415000000008     51.561199999999999
H      49.688200000000002     44.802315000000000     44.562899999999999
H      48.591299999999997     44.983815000000000     43.402400000000000
H      44.808900000000001     44.970015000000004     50.383300000000006
H      45.341100000000004     46.275714999999991     52.597600000000000
O      45.515899999999995     45.214914999999998     50.794499999999999
O      45.196300000000001     43.243854999999996     48.279700000000005
