7

C      46.809749999999994     48.243650000000002     47.833549999999988
C      49.457350000000005     47.928450000000005     47.486150000000002
C      48.154850000000003     48.198450000000008     47.621149999999993
H      50.177849999999999     49.077149999999996     47.691549999999999
H      49.937650000000005     46.922850000000004     47.465650000000004
H      46.524450000000002     48.399850000000008     48.818549999999995
O      45.822150000000001     47.944350000000007     47.181450000000005
