21

C      48.420849999999994     49.396149999999999     50.125899999999987
C      48.582650000000001     47.980050000000006     50.547499999999992
C      48.626949999999994     49.559750000000008     48.621599999999994
C      47.588949999999997     47.103549999999998     49.831499999999998
C      48.333649999999992     48.525949999999995     47.706200000000003
C      47.903049999999993     47.275350000000003     48.330700000000000
C      48.779949999999999     48.659549999999996     46.340600000000002
C      47.764150000000001     46.299149999999997     47.344999999999992
C      48.216549999999998     47.800250000000005     45.353699999999996
C      47.633649999999989     46.710650000000001     46.002800000000001
H      48.919349999999994     50.355450000000005     50.525100000000002
H      47.361750000000001     49.579149999999998     50.459399999999995
H      49.601050000000001     47.916950000000000     50.438600000000001
H      48.467050000000000     48.113349999999997     51.700499999999998
H      49.025349999999989     50.471149999999994     48.287299999999995
H      46.398949999999999     46.956850000000003     49.992699999999992
H      47.634349999999998     46.211950000000002     50.358499999999999
H      49.111849999999990     49.773449999999997     46.104999999999997
H      47.288950000000000     45.528850000000006     47.882100000000001
H      48.386049999999997     47.568849999999998     44.299500000000002
H      47.478650000000002     45.659549999999996     45.206899999999997
