21

C      49.712149999999987     46.073700000000002     47.859249999999996
C      48.449649999999991     45.503900000000002     48.153350000000003
C      49.601950000000002     47.545300000000012     48.543750000000003
C      47.188949999999991     46.146200000000007     47.836449999999999
C      48.584649999999996     48.304500000000004     48.634749999999997
C      47.352149999999995     47.711900000000000     48.286250000000003
C      48.470550000000003     49.647600000000011     48.790250000000000
C      46.236750000000001     48.566800000000001     48.144150000000010
C      47.410849999999996     50.465500000000006     48.746849999999995
C      46.188450000000003     49.733200000000011     48.915649999999999
H      49.995849999999990     46.153599999999997     46.714449999999999
H      50.639049999999997     47.991800000000012     48.479250000000008
H      48.377949999999998     44.393600000000006     48.083750000000009
H      48.262149999999991     45.496500000000012     49.285550000000001
H      50.877650000000003     45.261900000000011     48.280150000000006
H      46.239449999999991     45.583000000000013     48.193650000000005
H      47.325449999999989     46.355900000000005     46.745950000000001
H      49.623750000000001     50.022600000000011     48.722050000000010
H      45.145049999999998     48.205699999999993     47.653649999999999
H      47.252849999999995     51.606399999999994     49.087050000000005
H      45.122349999999997     50.343100000000007     49.064750000000004
