6

C      47.393399999999993     47.810949999999991     48.033899999999988
C      48.782399999999996     47.612850000000009     48.134299999999996
H      46.939000000000000     48.692549999999997     48.810500000000005
H      46.629800000000003     47.307450000000003     47.480199999999996
H      49.370199999999997     47.397750000000002     47.189499999999995
H      49.328299999999999     48.515650000000008     48.662499999999994
