22

C      45.678399999999989     48.755699999999990     47.596799999999988
C      49.654100000000000     49.080300000000008     50.165700000000001
C      47.096900000000005     49.250399999999999     47.026899999999998
C      48.909099999999995     49.558200000000014     49.124099999999999
C      48.096199999999996     48.093000000000004     47.254999999999995
C      49.113100000000003     48.978700000000003     47.680000000000007
C      48.604699999999994     46.885900000000007     46.594999999999999
C      50.264399999999995     49.117999999999995     46.811999999999998
C      50.040199999999999     46.750100000000003     46.303600000000003
C      50.364300000000000     48.108599999999996     45.833399999999997
H      45.858999999999995     48.576200000000000     48.709000000000003
H      45.028800000000004     47.746499999999997     47.360900000000001
H      50.087699999999998     48.265400000000000     49.957599999999999
H      49.713000000000008     49.609300000000005     51.012100000000004
H      47.245100000000008     50.187100000000001     47.717900000000000
H      48.270499999999998     50.218800000000002     49.536799999999999
H      47.924900000000008     46.073700000000002     46.216899999999995
H      50.801500000000004     50.087500000000006     46.597899999999996
H      50.697599999999994     45.781199999999998     46.226200000000006
H      50.971599999999995     48.114699999999999     44.987899999999996
H      45.028400000000005     49.607500000000002     47.724500000000006
H      47.063400000000001     49.723500000000001     46.072999999999993
