6

C      48.515799999999999     47.553649999999990     47.543185000000001
C      48.109300000000005     48.310249999999989     48.619375000000005
H      48.104600000000005     46.430349999999997     47.256575000000005
H      48.391400000000004     47.945150000000005     46.547555000000003
H      47.826599999999999     49.569650000000003     48.575205000000004
H      47.484200000000001     47.821750000000002     49.452444999999997
