6

C      47.365749999999998     48.253899999999987     47.942950000000003
C      48.334750000000000     48.127899999999997     48.698450000000008
H      46.882350000000002     47.308400000000006     47.597750000000005
H      47.650149999999996     48.836900000000000     46.944350000000000
H      49.117649999999998     48.900000000000006     48.746650000000002
H      48.527450000000002     47.099999999999994     49.055650000000000
