26

C      48.856649999999988     48.687299999999993     50.475562499999995
C      49.163250000000005     49.815099999999994     50.315220500000002
C      48.935850000000002     47.765000000000001     49.347480500000010
C      49.399950000000004     47.948500000000003     46.451580500000013
C      47.819350000000000     48.192000000000000     48.241880500000015
C      47.971450000000004     48.120699999999999     46.870380499999996
C      46.502949999999998     48.392400000000002     48.580680500000007
C      46.936350000000004     48.132600000000004     45.807880500000003
C      45.288650000000004     48.452999999999996     47.685680500000011
C      45.641049999999993     48.185700000000004     46.312380499999996
C      51.072649999999996     46.019799999999996     46.459680500000005
C      49.751249999999999     46.429600000000001     46.172480499999999
H      47.886849999999995     48.506700000000002     51.097719500000004
H      49.604950000000002     50.416699999999999     51.082803500000004
H      48.212249999999997     50.665799999999997     49.865680500000011
H      48.874450000000010     46.632399999999997     49.575980500000007
H      49.978750000000005     47.941899999999997     48.875480500000030
H      49.580449999999999     48.587100000000000     45.477680499999998
H      50.177149999999997     48.224799999999995     47.202380499999997
H      46.214650000000006     48.157499999999999     49.683480500000016
H      46.938050000000004     47.698500000000003     44.902280499999996
H      44.318749999999994     48.137599999999999     48.188880500000025
H      44.805650000000000     47.947299999999998     45.769780500000017
H      51.451650000000001     45.334200000000003     45.708480499999986
H      51.681250000000006     46.741300000000003     46.708080500000001
H      48.867850000000004     46.088999999999999     45.426780499999992
