30

C      48.924749999999996     48.694449999999989     48.752144999999999
C      50.970250000000007     48.951050000000009     50.722845000000000
C      49.089550000000003     47.671549999999996     49.716045000000001
C      50.457250000000002     47.498850000000004     50.243545000000005
C      48.239950000000000     46.496750000000006     49.396145000000004
C      50.710950000000011     46.254850000000005     50.858645000000003
C      48.523449999999997     45.328749999999999     50.153045000000013
C      49.801050000000004     45.135450000000006     50.759445000000007
C      46.489050000000006     50.522549999999995     44.785164999999999
C      46.455650000000006     49.920249999999996     46.040044999999999
C      47.684049999999999     49.611850000000004     46.700144999999999
C      45.316749999999999     49.466150000000013     46.728545000000004
C      47.713250000000002     48.873350000000002     48.007645000000004
C      45.188549999999999     48.718650000000011     47.958045000000006
C      46.376850000000005     48.600250000000003     48.703745000000005
H      47.169449999999998     50.114949999999993     44.126055000000001
H      49.620150000000002     49.375249999999994     48.585845000000006
H      50.224950000000000     49.652550000000005     50.582845000000006
H      51.872450000000001     49.277649999999994     50.064645000000006
H      47.161950000000004     46.742750000000001     49.355245000000004
H      51.544449999999998     46.569350000000000     51.501645000000003
H      47.822050000000004     44.557850000000002     50.105844999999995
H      49.930549999999997     44.290949999999995     51.525545000000001
H      45.424650000000000     49.844149999999999     44.298325000000006
H      44.127549999999999     49.642749999999992     46.410045000000004
H      48.500650000000000     50.174750000000003     46.087645000000002
H      44.288449999999997     48.317650000000000     48.510845000000003
H      46.453550000000000     48.366150000000005     49.814645000000006
H      51.010449999999992     48.747050000000002     51.873944999999999
H      46.228850000000001     51.709050000000005     44.910865000000001
