17

C      46.339049999999986     49.538599999999995     47.896199999999993
C      46.547749999999994     46.742199999999997     49.413600000000010
C      47.370349999999988     48.398399999999995     47.939900000000002
C      47.481749999999991     47.260000000000005     48.784799999999997
C      48.409849999999992     48.551299999999998     46.988000000000007
C      48.671049999999994     46.501900000000006     48.703700000000005
C      49.721449999999990     47.932500000000005     47.037100000000002
C      49.803349999999995     46.816900000000004     47.923499999999997
H      45.434249999999992     49.641199999999998     48.505900000000004
H      46.532049999999984     50.585899999999995     48.096300000000006
H      46.619549999999990     45.713700000000003     49.802000000000000
H      45.385649999999998     47.256699999999995     49.656700000000008
H      48.552349999999990     49.405600000000007     46.274099999999997
H      48.911450000000002     45.414100000000005     48.699199999999998
H      50.433250000000001     47.990899999999996     46.198000000000000
H      50.614350000000002     46.228899999999996     47.894700000000007
H      45.918849999999992     49.268799999999999     46.811300000000010
