36

C      49.665999999999997     50.066864999999993     46.496549999999992
C      50.682599999999994     48.801764999999996     46.662049999999994
C      47.699500000000000     45.170445000000001     49.869649999999993
C      46.912099999999995     46.317475000000002     50.398049999999998
C      50.366900000000001     47.968575000000001     47.718850000000003
C      48.758200000000002     45.848694999999999     49.188249999999996
C      46.656599999999997     49.115365000000004     48.126850000000005
C      45.919399999999996     47.961064999999998     48.856949999999998
C      47.911599999999993     49.058264999999999     47.465649999999997
C      47.029299999999992     47.305304999999997     49.390749999999997
C      49.004899999999992     48.179785000000003     48.070449999999994
C      48.457999999999998     47.230035000000001     48.936650000000000
C      50.276700000000005     50.938665000000007     45.581950000000006
C      51.514899999999997     50.664465000000000     45.057050000000004
C      51.921999999999997     48.702954999999996     46.047250000000005
C      45.708100000000002     50.250165000000003     47.859549999999999
C      44.404299999999992     50.316164999999991     48.492149999999995
C      44.059799999999996     49.401964999999997     49.484049999999996
C      44.762799999999999     48.176475000000003     49.596249999999998
C      46.099099999999993     46.043894999999999     51.581850000000003
H      47.556799999999996     44.219434999999997     49.607050000000001
H      49.592200000000005     45.198875000000001     48.885049999999993
H      49.599900000000005     51.709764999999997     45.303650000000005
H      52.713999999999999     47.914285000000000     46.298249999999996
H      45.829099999999997     50.415765000000000     46.821150000000003
H      43.618499999999997     50.920665000000007     48.034750000000003
H      43.286000000000001     49.458264999999997     50.127949999999998
H      44.444800000000001     47.365515000000002     50.269250000000000
H      52.004599999999996     46.907235000000000     48.398349999999994
H      51.003500000000003     51.780565000000003     43.609350000000006
H      45.323499999999996     46.806004999999999     51.695650000000001
H      46.137500000000003     45.259695000000001     52.390649999999994
N      48.419399999999996     50.045465000000000     46.644850000000005
N      52.288299999999992     49.702864999999996     45.272049999999993
O      51.069199999999995     47.038955000000001     48.478849999999994
O      51.910399999999996     51.587865000000001     44.057149999999993
