38

C      48.465654999999991     48.584449999999990     48.924499999999995
C      49.741705000000003     47.937850000000005     49.190000000000005
C      48.150055000000002     46.251650000000005     45.005200000000002
C      47.186615000000003     48.046749999999996     48.034199999999998
C      49.799035000000003     46.600550000000005     48.587299999999999
C      47.211714999999998     46.995250000000006     45.808900000000001
C      49.531055000000002     45.253949999999996     46.585200000000000
C      47.771754999999999     47.176949999999998     47.081200000000003
C      49.152514999999994     46.199450000000006     47.358499999999999
C      45.806975000000001     48.348050000000008     48.145299999999999
C      45.677954999999997     48.707749999999997     49.564299999999996
C      46.077635000000001     47.736049999999999     45.004700000000000
C      45.376514999999998     49.841850000000001     50.375799999999991
C      45.291784999999997     49.694350000000007     51.593000000000011
C      49.194675000000004     45.417949999999998     45.210799999999999
C      45.799334999999999     47.377649999999996     50.159399999999998
C      50.930755000000005     44.606950000000005     47.092599999999997
C      45.581085000000002     51.754349999999995     48.732100000000003
H      50.688045000000002     48.606749999999998     49.347500000000004
H      50.115054999999998     45.942250000000008     49.455600000000004
H      45.093024999999997     48.752749999999999     47.279400000000003
H      46.729415000000003     48.364950000000000     44.269300000000001
H      45.715485000000001     47.193649999999998     44.012100000000004
H      46.134115000000001     49.891650000000006     52.103000000000002
H      45.238824999999999     48.286450000000009     45.650599999999997
H      44.272795000000002     49.427650000000007     51.961599999999997
H      47.942534999999999     46.553050000000006     43.896999999999998
H      49.700395000000000     45.018350000000005     44.325600000000001
H      46.278525000000002     47.344150000000006     51.148200000000003
H      45.983345000000000     46.629250000000006     49.147399999999998
H      44.746794999999999     47.076550000000005     50.688299999999998
H      51.727204999999998     44.688650000000003     46.349100000000000
H      51.473235000000003     44.782950000000007     48.030700000000003
H      50.668225000000007     43.369350000000004     47.278500000000001
H      46.253155000000000     52.630649999999996     47.286400000000000
N      45.492575000000002     52.166950000000007     47.619999999999997
O      45.311255000000003     51.315950000000008     49.920400000000001
O      48.337944999999998     49.760849999999998     48.682200000000002
