6

C      47.344469999999994     47.975899999999996     47.705299999999994
C      48.498840000000001     48.116599999999998     48.466400000000000
H      46.518850000000000     47.332900000000002     48.306699999999999
H      47.175080000000001     48.024200000000000     46.562800000000003
H      48.192520000000002     47.794400000000003     49.437199999999997
H      49.481150000000000     48.667099999999998     47.953299999999992
