25

C      46.421049999999994     47.412349999999989     47.234879999999990
C      47.138119999999986     48.644149999999982     47.473920000000000
C      48.206490000000002     46.829549999999998     51.321269999999998
C      45.988600000000005     46.680749999999989     48.379159999999992
C      48.123869999999997     49.054249999999996     48.431210000000000
C      47.016189999999995     46.516149999999996     50.707960000000000
C      48.838369999999998     47.829650000000001     50.571770000000008
C      46.822230000000005     47.154449999999997     49.424289999999992
C      47.944199999999995     48.208550000000002     49.466769999999997
C      45.918930000000003     46.791550000000001     45.998849999999997
C      45.933790000000002     47.800549999999987     45.061433000000001
C      46.836369999999988     49.012549999999990     44.966190000000019
C      47.183439999999990     49.598349999999982     46.252589999999998
C      50.362560000000002     48.069850000000002     50.457529999999998
H      50.761309999999995     47.025049999999993     50.094419999999992
H      48.870099999999994     46.295349999999999     52.120709999999995
H      45.806049999999999     45.627549999999999     48.456440000000001
H      48.988519999999994     49.439249999999987     48.018740000000001
H      46.274490000000000     45.761649999999989     50.995570000000008
H      45.238690000000005     45.891349999999989     45.873382999999997
H      45.377529999999993     47.070149999999998     44.244190000000010
H      46.834670000000003     49.317349999999990     43.879290000000005
H      48.011839999999992     50.372450000000001     46.223680000000002
H      50.584209999999999     48.798649999999995     49.594640000000005
H      50.606660000000005     48.519349999999989     51.567959999999992
