109

C      54.039349999999992     52.696649999999991     42.520099999999999
C      55.045449999999995     51.983950000000000     43.240800000000000
C      50.359349999999999     49.419949999999993     43.700899999999997
C      51.501649999999998     48.503350000000005     43.985199999999999
C      52.741549999999997     52.216249999999995     42.338000000000001
C      54.786450000000002     50.515849999999993     43.728800000000000
C      51.035649999999997     50.583350000000003     43.185700000000004
C      53.068149999999996     48.678350000000002     43.932899999999997
C      52.371150000000000     51.001749999999994     42.975800000000000
C      53.382949999999994     50.003650000000000     43.476700000000001
C      54.202349999999996     53.968449999999997     41.875700000000002
C      55.525749999999995     54.405250000000002     41.913100000000007
C      56.560350000000000     53.837349999999994     42.672500000000007
C      56.382349999999995     52.508950000000006     43.402600000000000
C      49.385449999999999     49.177450000000000     44.753099999999996
C      49.283949999999997     48.156849999999999     45.729199999999999
C      50.408949999999997     47.354549999999996     45.690000000000005
C      51.540450000000000     47.381449999999994     44.894700000000007
C      46.021049999999995     49.520249999999997     46.702199999999998
C      45.299449999999993     50.803850000000004     46.878000000000007
C      51.656649999999999     53.791750000000000     47.864800000000010
C      47.355449999999998     49.613750000000003     46.727600000000002
C      46.070849999999993     52.011350000000000     46.577400000000004
C      51.529750000000000     52.475249999999996     47.938700000000004
C      50.293650000000000     54.396449999999994     47.728500000000004
C      49.619850000000000     50.794549999999994     47.036700000000003
C      48.078649999999996     53.348449999999993     47.104400000000005
C      48.244549999999997     50.889450000000004     46.717800000000004
C      47.450149999999994     52.104750000000003     46.874900000000004
C      50.190949999999994     51.949750000000002     47.683399999999999
C      49.439349999999997     53.277650000000001     47.567799999999998
C      44.806049999999999     48.583750000000002     46.580900000000007
C      43.609150000000000     48.758950000000006     47.351000000000006
C      43.353349999999992     50.122350000000004     47.913600000000010
C      44.167349999999999     51.164049999999996     47.705599999999997
C      44.889150000000001     47.230250000000005     46.009200000000000
C      44.131249999999994     46.195050000000002     46.298499999999997
C      43.360849999999999     46.275349999999996     47.606100000000005
C      42.982749999999996     47.629150000000003     47.797300000000000
C      43.987449999999995     45.122149999999998     45.209200000000003
C      48.137749999999997     48.335850000000001     46.745200000000004
C      43.114649999999997     46.513749999999995     53.362400000000001
C      40.346750000000000     44.580249999999999     52.318700000000000
C      41.717649999999992     46.272449999999999     53.417200000000001
C      44.798449999999995     45.142549999999993     49.774400000000007
C      44.429949999999998     45.916149999999995     53.275100000000002
C      41.848549999999996     42.914849999999994     50.174399999999999
C      40.896850000000001     42.448649999999994     51.194499999999998
C      41.750249999999994     44.889549999999993     52.753599999999999
C      42.790749999999996     43.783750000000005     50.689600000000006
C      44.254849999999998     44.760950000000001     52.464599999999997
C      42.883449999999996     44.480950000000000     52.024900000000009
C      39.384850000000000     45.549950000000003     52.147100000000002
C      39.656549999999996     46.990349999999999     52.602200000000003
C      40.545149999999992     46.995550000000001     53.728800000000000
C      43.412250000000000     44.808249999999994     49.733499999999999
C      42.874150000000000     44.950049999999997     48.327400000000004
C      44.947049999999997     43.749450000000003     52.576600000000006
C      41.467749999999995     41.506849999999993     52.423800000000007
C      40.679049999999997     45.275449999999999     49.558799999999998
C      41.254549999999995     44.885849999999998     48.418500000000002
H      42.575849999999996     41.829950000000004     52.865699999999997
H      55.545550000000006     49.870550000000001     43.093200000000003
H      52.268149999999999     52.836350000000003     41.543399999999998
H      55.264649999999989     50.029149999999994     44.639299999999999
H      50.322049999999997     51.500849999999993     43.433600000000006
H      53.965449999999997     47.893849999999993     44.047900000000006
H      53.263749999999995     54.642549999999993     41.519100000000002
H      56.028749999999988     55.524750000000004     41.466799999999999
H      57.435749999999999     54.592750000000002     42.752400000000002
H      56.944949999999999     52.167250000000003     44.196800000000003
H      48.720149999999997     50.163649999999997     44.685600000000001
H      50.334949999999999     46.463550000000005     46.274300000000004
H      52.269849999999998     46.529450000000004     44.921200000000006
H      52.636949999999999     54.147349999999996     47.902600000000000
H      45.744649999999993     53.067649999999993     46.486300000000007
H      52.354450000000000     51.710649999999994     47.900500000000001
H      49.998249999999999     55.540550000000003     47.956300000000006
H      50.374449999999996     50.449949999999994     46.408700000000003
H      42.388649999999998     50.171649999999993     48.493100000000005
H      43.842050000000000     52.162849999999999     47.888900000000000
H      45.133550000000000     47.016249999999992     44.975800000000000
H      44.538649999999997     42.766349999999996     52.187400000000004
H      42.007849999999998     47.578449999999997     48.417800000000007
H      48.286949999999997     55.329050000000002     46.816800000000008
H      43.533949999999997     45.193549999999995     44.252600000000008
H      45.199249999999992     45.197150000000001     44.722900000000003
H      44.143249999999995     44.184549999999994     45.726999999999997
H      47.605649999999997     47.389249999999997     46.625500000000009
H      48.502649999999996     48.426650000000002     47.833100000000009
H      43.148049999999998     47.822749999999992     53.395699999999998
H      45.321849999999998     46.511249999999997     53.436000000000000
H      40.103149999999999     41.905650000000001     50.623799999999996
H      38.839749999999995     43.729149999999997     51.010399999999997
H      38.564250000000001     45.097550000000005     51.459800000000008
H      38.686449999999994     47.359749999999998     52.414999999999999
H      40.426850000000002     47.717350000000003     54.533200000000001
H      41.838549999999998     40.459449999999997     52.130000000000003
H      40.725049999999996     41.488149999999997     53.302700000000009
H      45.277649999999994     45.584250000000004     48.955999999999996
H      43.290349999999997     44.060650000000003     47.859100000000005
H      41.891049999999993     42.726149999999997     49.114300000000007
H      41.225349999999992     45.706650000000003     50.536099999999998
H      39.614949999999993     45.567050000000002     49.378200000000000
H      40.571449999999999     44.394749999999995     47.634200000000000
H      45.385249999999999     43.494849999999992     53.573000000000000
H      45.364350000000002     45.012049999999995     50.731200000000008
N      39.999649999999995     43.534950000000002     51.520100000000006
O      47.627549999999999     54.594150000000006     47.032299999999999
