6

C      47.850249999999988     47.669349999999994     48.596449999999990
C      48.056450000000005     48.430850000000000     47.506449999999994
H      47.441650000000003     46.587150000000001     48.601049999999994
H      47.896350000000005     48.105950000000000     49.641849999999998
H      47.949450000000006     48.108649999999990     46.358150000000002
H      48.558349999999997     49.412849999999999     47.849150000000002
