21

C      48.226599999999991     51.138549999999995     49.597950449999985
C      47.863199999999992     49.717150000000004     49.417050449999998
C      49.092972000000003     49.073750000000004     48.841750449999999
C      46.695200000000000     46.896450000000002     49.606650449999997
C      48.913699999999992     47.773449999999997     48.282650449999998
C      48.036799999999999     46.711749999999995     48.855850449999998
C      49.506630999999999     47.662949999999995     46.968050450000000
C      48.039299999999997     45.437349999999995     48.201150449999993
C      49.367954999999995     46.468150000000009     46.432450449999997
C      48.842499999999987     45.267350000000008     47.091350450000000
H      46.294199999999989     45.823850000000007     50.006850449999995
H      49.183495999999991     51.391849999999991     49.746950449999993
H      46.876399999999990     49.309449999999998     49.369650449999988
H      50.091450000000009     49.607550000000003     49.035550449999995
H      46.994499999999988     47.452650000000006     50.377750450000001
H      45.843499999999992     47.270750000000007     48.974950449999987
H      50.156500000000008     48.380549999999999     46.463150449999993
H      47.302599999999998     44.434250000000006     48.685050449999999
H      49.687747999999999     46.055050000000008     45.436250449999996
H      48.965399999999988     44.263649999999998     46.649450449999996
H      47.834499999999991     51.736350000000002     50.563749550000004
