22

C      49.687799999999996     48.453949999999999     46.203399999999988
C      50.126599999999996     47.122150000000005     45.597000000000001
C      49.350099999999998     48.819650000000010     47.328600000000002
C      46.760700000000000     48.429850000000002     46.163100000000000
C      48.191999999999993     48.385750000000002     48.192500000000003
C      46.881900000000002     47.861450000000005     47.717500000000008
C      48.584400000000002     47.808350000000004     49.456300000000006
C      45.955500000000001     47.454250000000002     48.716200000000001
C      47.800600000000003     47.085250000000002     50.418300000000009
C      46.488599999999991     47.143050000000002     50.035999999999994
H      49.170599999999993     47.206750000000007     45.109099999999998
H      47.233099999999993     49.345850000000006     46.077100000000002
H      50.188799999999986     46.283450000000002     46.348500000000008
H      50.295399999999987     49.260050000000007     45.633400000000002
H      50.988299999999995     47.126650000000005     44.703800000000001
H      49.921599999999998     49.716549999999998     47.902000000000001
H      45.771299999999997     48.336050000000007     45.798699999999997
H      47.642099999999999     47.944450000000003     45.689399999999999
H      49.536999999999992     47.725950000000005     49.970900000000000
H      45.011700000000005     47.460650000000008     48.167000000000009
H      48.142200000000003     46.499650000000003     51.296199999999999
H      45.701399999999992     46.597150000000006     50.809099999999994
