7

C      48.509499999999989     48.020099999999999     48.061999999999983
C      47.047699999999992     48.069700000000005     47.887999999999998
H      46.649100000000004     47.132899999999999     48.463900000000002
H      46.700499999999991     47.687500000000007     46.820399999999999
H      48.809600000000003     47.365800000000000     49.179600000000001
H      46.603700000000003     48.867100000000001     48.489100000000001
O      49.396299999999997     48.467599999999997     47.577700000000000
