18

C      46.820349999999998     49.082499999999989     46.994699999999995
C      45.948049999999995     49.625000000000000     48.008400000000002
C      46.317750000000004     49.255299999999998     49.276600000000009
C      46.973249999999993     48.048600000000000     49.552600000000005
C      47.517250000000004     47.226799999999997     48.516200000000005
C      47.554850000000002     47.769700000000000     47.156200000000005
C      48.568950000000001     46.332299999999996     49.007700000000007
C      48.769049999999993     47.468800000000002     46.334200000000003
C      49.814650000000000     46.080199999999998     48.390599999999999
C      49.607950000000002     46.608599999999996     47.038100000000007
H      47.345349999999996     47.956199999999995     50.662900000000000
H      47.144350000000003     49.935599999999994     46.230000000000004
H      45.193849999999998     50.321500000000000     47.686600000000006
H      48.365250000000003     45.812899999999999     49.869400000000006
H      48.834350000000001     47.701499999999996     45.337100000000000
H      50.806150000000002     45.678500000000000     48.812400000000004
H      50.290449999999993     46.255699999999997     46.353100000000005
H      45.786450000000002     49.581600000000002     50.091200000000008
