22

C      46.378249999999994     48.902249999999995     46.486799999999988
C      45.131049999999995     48.773449999999997     46.094000000000001
C      46.990649999999995     48.949649999999998     47.919800000000002
C      48.927849999999999     47.339449999999999     50.396200000000000
C      48.307150000000000     47.945850000000000     47.857099999999996
C      49.170449999999995     47.794249999999998     49.006999999999998
C      48.464450000000006     47.312350000000002     46.479799999999997
C      50.440649999999998     47.267550000000000     48.543399999999998
C      49.592350000000003     46.627250000000004     46.221499999999999
C      50.693050000000007     46.889150000000001     47.223599999999998
H      44.813750000000006     48.578850000000003     44.947899999999997
H      47.389450000000004     48.887250000000002     45.818199999999997
H      49.993350000000000     46.980150000000002     50.354099999999995
H      44.297350000000002     48.973049999999994     46.690399999999997
H      47.359649999999995     49.894950000000001     48.343399999999995
H      46.293849999999999     48.851149999999997     48.628099999999996
H      48.158449999999995     46.564250000000001     50.394299999999994
H      47.458949999999994     47.088149999999999     45.881200000000000
H      51.436550000000004     47.218049999999998     49.183999999999990
H      49.594349999999999     46.105049999999999     45.195699999999995
H      51.702649999999998     46.892650000000003     46.867599999999996
H      48.583250000000000     48.225650000000002     51.052100000000003
