6

C      48.097599999999993     48.775449999999999     47.737399999999994
C      47.410600000000002     47.765749999999997     48.346000000000018
H      48.113000000000000     49.164050000000003     46.684100000000001
H      48.920800000000000     49.232749999999996     48.595000000000013
H      47.079200000000000     46.767250000000004     47.932400000000015
H      47.299200000000006     47.776550000000000     49.315899999999999
