18

C      48.882750000000001     49.678049999999999     49.197899999999997
C      48.253850000000007     49.951149999999998     45.899000000000001
C      48.925450000000005     48.685050000000004     48.324700000000007
C      48.377749999999999     48.707350000000005     46.901700000000005
C      48.787849999999999     47.189650000000000     48.723799999999997
C      47.101750000000003     47.887950000000004     46.460999999999999
C      48.145750000000000     46.220849999999999     48.159000000000006
C      47.313949999999998     46.599450000000004     47.049800000000005
H      49.840650000000004     49.145449999999997     50.865899999999996
H      48.552650000000007     50.556049999999999     48.502000000000010
H      48.142649999999996     50.825450000000004     46.728800000000007
H      47.460349999999998     50.013649999999998     45.134100000000004
H      49.521650000000001     50.074749999999995     45.582400000000007
H      49.557049999999997     47.021850000000001     49.325800000000001
H      46.159349999999996     48.206950000000006     45.964300000000009
H      48.044550000000008     45.174549999999996     48.416700000000006
H      46.870449999999998     45.744349999999997     46.525199999999998
O      49.483650000000004     49.914549999999991     50.430400000000006
