42

C      49.979499999999987     43.907449999999983     44.939699999999988
C      50.039600000000000     44.269249999999992     46.402499999999989
C      48.970099999999995     45.254349999999995     46.715299999999999
C      48.717999999999996     46.358249999999991     46.066699999999997
C      48.810099999999998     47.950849999999996     48.468986000000001
C      47.539499999999997     47.286449999999995     46.353399999999993
C      47.518399999999993     48.110049999999994     47.473699999999994
C      46.422199999999997     47.112749999999998     45.483899999999991
C      46.552900000000001     48.962849999999996     47.801299999999998
C      45.347400000000000     48.011949999999992     45.729900000000001
C      45.477700000000006     48.870950000000001     46.859199999999987
C      45.992100000000001     50.449149999999996     50.464700000000008
C      47.146399999999993     50.028649999999992     50.978920000000002
C      48.680100000000003     47.741049999999994     50.030829999999995
C      49.275399999999998     49.117249999999991     50.450910000000007
C      48.636500000000005     50.206649999999989     51.158360000000002
C      50.521200000000000     49.320050000000002     49.856700000000004
C      49.099100000000000     51.601049999999994     51.205110000000005
C      50.706600000000002     50.732849999999992     49.820290000000000
C      50.131300000000003     52.024449999999995     50.368940000000009
H      50.565499999999993     42.931649999999998     44.621699999999990
H      50.405999999999999     44.576450000000001     44.282199999999989
H      49.138399999999997     43.387849999999993     44.728799999999993
H      51.038000000000004     44.233049999999999     46.962399999999988
H      49.800999999999995     43.314949999999989     46.969600000000000
H      49.084099999999999     46.596349999999994     45.206999999999994
H      48.341900000000003     44.924849999999999     47.573699999999988
H      49.465299999999992     47.263849999999998     47.847200000000001
H      49.041099999999993     49.017350000000000     48.221826000000007
H      46.424100000000003     46.777250000000002     44.527499999999989
H      46.547699999999999     49.877449999999989     48.513086999999999
H      44.403600000000004     47.628049999999995     45.118600000000001
H      44.548600000000000     49.213149999999992     47.182899999999989
H      49.372300000000003     46.805850000000000     50.261150000000001
H      47.006800000000005     49.063150000000000     51.675600000000003
H      45.682099999999998     51.280749999999991     49.588070000000002
H      47.534100000000002     47.763849999999998     50.179640000000006
H      51.138100000000001     48.606049999999989     49.417859999999990
H      48.402099999999997     52.264949999999992     51.717800000000011
H      51.596399999999996     50.612949999999991     48.954207999999994
H      50.368800000000000     53.068350000000002     50.115780000000001
H      45.168500000000002     49.950249999999990     50.935500000000005
