17

C      47.997499999999995     45.923999999999992     46.848299999999995
C      47.637799999999999     46.877299999999998     50.035699999999999
C      48.141399999999990     47.053099999999993     47.319000000000003
C      47.716399999999993     47.526500000000006     48.632600000000004
C      48.491399999999999     47.957400000000000     46.242899999999999
C      47.132700000000000     48.792099999999998     48.613199999999999
C      48.906199999999998     49.176499999999997     46.864200000000004
C      48.142099999999999     49.737400000000001     47.929000000000002
H      48.643199999999993     46.724200000000003     50.673700000000004
H      48.960200000000000     45.372300000000003     46.753799999999998
H      46.804999999999993     46.195799999999998     49.999000000000002
H      46.813099999999991     47.585699999999996     50.511299999999999
H      49.178600000000003     47.590100000000000     45.326299999999996
H      46.503000000000000     49.152200000000001     49.465899999999998
H      49.497000000000000     49.811100000000003     46.310400000000001
H      48.208399999999997     50.657000000000004     48.386400000000002
H      46.899599999999992     45.342999999999996     46.372000000000000
