6

C      48.121110000000002     48.659499999999994     47.381199999999993
C      48.460870000000000     47.985600000000005     48.614399999999989
H      47.036460000000005     48.935299999999998     47.359399999999994
H      48.963539999999995     48.910799999999995     46.726100000000002
H      48.948260000000005     47.064700000000002     48.763499999999993
H      47.468360000000004     47.567799999999991     49.273899999999998
