6

C      47.725899999999996     48.585099999999997     47.820199999999993
C      48.153999999999996     47.883700000000005     49.021699999999996
H      46.927700000000002     49.260899999999992     48.012000000000000
H      47.651600000000002     48.120000000000005     46.761200000000002
H      49.072299999999998     48.441000000000003     49.211399999999998
H      48.243200000000002     46.739100000000008     49.238799999999998
