22

C      45.553599999999989     48.290664999999990     48.847749999999998
C      45.798800000000014     46.789474999999996     48.164150000000006
C      46.881900000000002     49.164845000000014     49.212950000000006
C      46.700699999999998     46.898054999999999     47.055350000000004
C      48.093800000000002     48.802855000000008     48.304050000000004
C      47.819000000000003     47.789455000000004     47.334950000000006
C      49.273499999999999     49.378474999999995     48.623050000000006
C      48.967600000000004     47.553505000000001     46.513450000000006
C      50.427100000000010     49.083704999999995     47.973749999999995
C      50.157700000000006     48.356195000000000     46.728449999999995
H      44.963400000000007     48.084614999999999     49.706549999999993
H      45.010900000000007     48.877615000000006     47.984250000000003
H      46.034800000000004     45.980215000000001     48.792150000000007
H      44.584400000000002     46.469715000000008     47.871449999999996
H      47.016900000000007     48.620175000000003     50.306449999999998
H      46.800700000000006     50.258515000000003     49.315849999999998
H      46.008499999999998     47.426315000000002     46.237650000000002
H      47.014499999999998     45.741484999999997     46.588350000000005
H      49.332900000000009     49.927255000000002     49.556449999999998
H      49.064800000000005     47.173154999999994     45.693550000000002
H      51.415599999999998     49.346055000000007     48.063350000000000
H      50.947100000000006     48.587235000000007     45.944050000000004
