22

C      45.582554999999999     47.604050000000001     46.950099999999992
C      45.578834999999998     47.528950000000002     48.592500000000001
C      46.796084999999991     48.308349999999997     46.387299999999996
C      46.997605000000007     47.073050000000002     48.988500000000002
C      48.032475000000005     48.702149999999996     47.287000000000006
C      48.109655000000004     47.980250000000005     48.406000000000006
C      49.143405000000001     49.464550000000010     46.885599999999997
C      49.114935000000003     48.164549999999998     49.333100000000002
C      50.316595000000007     49.587350000000008     47.797400000000010
C      50.206195000000008     49.018949999999997     49.016000000000005
H      44.896695000000008     48.043349999999997     46.311300000000003
H      45.441895000000002     46.471049999999998     46.610299999999995
H      44.806605000000005     46.825449999999996     48.921100000000010
H      45.311734999999999     48.600550000000005     48.905500000000004
H      47.463144999999997     47.976250000000000     45.605999999999995
H      46.309604999999991     49.314950000000003     46.071200000000005
H      47.264174999999994     47.087650000000004     50.169700000000006
H      46.960314999999994     45.911650000000002     49.273399999999995
H      49.227845000000002     49.565950000000008     45.808199999999999
H      48.970264999999998     47.760250000000006     50.394000000000005
H      51.193394999999995     50.088349999999998     47.514600000000002
H      50.966695000000001     48.905250000000002     49.852500000000006
