6

C      48.056099999999986     47.852749999999986     48.597299999999990
C      47.644099999999995     48.039349999999999     47.248700000000007
H      47.417500000000004     47.566649999999996     49.455199999999998
H      48.078299999999999     48.740849999999995     46.544800000000002
H      49.042100000000005     48.423150000000007     49.104800000000004
H      46.957899999999995     47.259150000000005     46.849499999999999
