7

C      49.274349999999991     47.806599999999989     47.933899999999987
C      48.055049999999994     48.139000000000010     47.877800000000001
C      46.779449999999997     48.714300000000009     47.831399999999995
H      49.803550000000001     47.667600000000007     49.085599999999999
H      49.612549999999999     46.682299999999998     47.786999999999999
H      46.196449999999999     49.317700000000002     48.584299999999999
H      46.247349999999997     48.829200000000000     46.914400000000001
