6

C      47.825149999999994     48.287599999999998     47.394249999999985
C      48.089849999999991     47.904500000000006     48.705350000000010
H      46.767749999999999     48.553599999999996     47.080650000000006
H      48.533049999999996     48.530600000000000     46.593850000000003
H      49.232250000000001     47.446400000000004     48.695150000000012
H      47.346649999999997     47.668100000000003     49.406149999999997
