20

C      46.883714999999988     48.812599999999996     46.722149999999992
C      47.658315000000002     49.099199999999996     47.911949999999997
C      48.805529000000007     48.243299999999998     48.293049999999994
C      49.201265000000006     47.483600000000003     47.218950000000007
C      48.456945000000005     47.061500000000002     46.019349999999996
C      47.568415000000002     48.103800000000000     45.723849999999999
C      47.164315000000002     50.076700000000002     48.927149999999997
C      47.975057700000008     50.210800000000006     50.081049999999998
C      48.803501000000004     50.269399999999997     51.051949999999998
C      48.469981000000004     45.668100000000003     45.320049999999995
H      46.049914999999999     49.531500000000008     46.539049999999996
H      49.605605000000011     48.420099999999998     49.096849999999989
H      49.950085000000001     46.605899999999998     47.199050000000000
H      47.176715000000002     48.176499999999997     44.636150000000001
H      46.766814999999994     50.935900000000004     48.666349999999994
H      48.778554000000014     51.110799999999998     51.718550000000000
H      49.712835000000005     49.688699999999997     51.442549999999997
H      48.166668000000008     44.889200000000002     45.894849999999998
H      48.096662000000009     45.657100000000000     44.281450000000000
H      49.476875000000007     45.171700000000001     45.206449999999997
