5

C      47.796999999999997     47.765749999999990     48.036049999999989
H      48.789700000000003     47.831249999999997     48.474350000000001
H      47.210299999999997     47.234450000000002     48.996750000000006
H      47.727700000000006     47.291449999999998     47.003249999999994
H      47.277999999999999     48.765549999999998     47.901949999999999
