18

C      47.780149999999992     49.843199999999989     49.096099999999993
C      46.039750000000005     47.145499999999998     48.778999999999996
C      48.132250000000006     48.592699999999994     48.192800000000005
C      47.583750000000002     47.351399999999998     48.514600000000002
C      49.127649999999996     48.509099999999997     47.218199999999996
C      48.016349999999996     46.079199999999993     48.056600000000003
C      49.633450000000003     47.231599999999993     46.622299999999996
C      48.934850000000004     46.138799999999996     46.997100000000003
H      45.387949999999996     47.980799999999995     48.316600000000008
H      47.195249999999994     49.502199999999995     49.958600000000004
H      47.922949999999993     50.950000000000003     48.642200000000003
H      45.918950000000002     46.153499999999994     48.308599999999998
H      46.161049999999996     47.198599999999999     49.934300000000007
H      49.616650000000000     49.378799999999998     46.937600000000003
H      47.634650000000001     45.049999999999997     48.388700000000000
H      50.612050000000004     47.340199999999996     46.041399999999996
H      49.530549999999998     45.174299999999995     46.767300000000006
H      46.825250000000004     49.819199999999995     48.491699999999994
