52

C      49.957149999999992     45.465859999999992     47.360449999999993
C      47.638050000000007     52.651129999999995     50.779049999999998
C      50.581649999999996     45.944559999999996     48.616250000000008
C      48.896450000000002     52.109359999999995     50.617249999999999
C      48.797650000000004     46.008359999999996     46.784950000000002
C      46.394050000000007     52.072530000000000     50.411149999999999
C      49.778450000000007     47.297027999999997     49.005449999999996
C      48.955950000000001     50.728179999999995     50.033549999999998
C      46.592950000000002     47.331479999999999     46.767150000000001
C      45.610749999999996     47.807739999999995     47.767849999999996
C      45.383550000000000     49.807680000000005     49.218049999999998
C      47.981049999999996     47.166771999999995     47.217149999999997
C      46.481650000000002     50.765279999999990     49.967449999999999
C      46.159649999999999     48.538589999999999     48.926950000000005
C      48.493449999999996     47.812380000000005     48.404550000000000
C      47.703249999999997     50.068469999999991     49.584750000000000
C      47.532250000000005     48.650050000000007     49.058449999999993
C      50.393749999999997     44.148259999999993     46.803950000000000
C      51.832449999999994     44.230359999999990     47.039250000000003
C      52.616249999999994     44.952759999999984     47.955849999999998
C      51.930449999999993     45.752659999999992     48.859949999999998
C      48.268850000000000     45.352559999999997     45.660849999999996
C      48.660449999999997     44.180959999999985     44.832250000000002
C      49.823650000000001     43.432459999999992     45.451349999999998
C      50.272250000000000     47.722829999999988     50.140149999999998
C      51.380449999999996     47.237391000000002     50.979250000000008
C      52.185550000000006     46.366596099999995     50.348250000000000
C      44.218649999999997     48.031610000000001     47.298949999999998
C      43.631450000000001     47.604720000000000     45.906050000000000
C      43.943649999999998     48.751039999999989     44.934249999999999
H      45.390650000000001     52.552419999999998     50.357450000000000
H      49.694050000000004     52.754639999999995     51.080550000000002
H      49.971050000000005     50.217219999999998     49.710450000000009
H      46.122950000000003     46.747484999999998     46.000149999999998
H      44.990049999999997     50.444499999999991     48.392550000000000
H      44.752150000000000     49.453759999999988     49.956750000000000
H      52.466049999999996     43.786659999999983     46.196950000000001
H      53.579549999999998     44.501059999999995     47.895350000000001
H      47.418049999999994     45.664159999999995     45.164850000000001
H      48.091049999999996     43.883659999999992     43.957250000000002
H      49.698549999999997     42.232159999999993     45.564650000000000
H      50.446349999999995     43.400559999999984     44.581249999999997
H      49.750150000000005     48.434830000000005     50.985250000000001
H      51.330050000000000     47.351590000000002     52.042749999999998
H      53.221850000000003     45.943859999999987     50.620049999999992
H      42.420450000000002     47.401790000000005     45.783850000000001
H      44.163249999999998     46.680475999999999     45.755749999999999
H      43.859450000000002     49.519430000000000     45.749049999999997
H      43.115349999999999     48.922499999999999     44.113250000000001
H      44.906350000000003     48.767240000000001     44.425849999999997
H      47.271749999999997     53.767840000000007     50.698850000000000
O      43.514150000000001     48.493300000000005     48.149050000000003
