6

C      48.271749999999997     47.489099999999993     47.829299999999996
C      47.555950000000003     48.634999999999998     47.602900000000005
H      49.391449999999999     47.374400000000001     47.896400000000000
H      47.910850000000003     46.512200000000000     48.397099999999995
H      46.608550000000001     48.844199999999994     47.966100000000004
H      48.137949999999996     49.487800000000000     47.647800000000004
