16

C      46.304949999999998     49.376519999999992     49.008299999999991
C      48.171250000000001     47.555779999999999     50.258600000000001
C      47.249250000000004     48.875419999999998     48.141700000000000
C      48.213849999999994     47.798099999999998     48.872199999999999
C      47.384050000000002     48.894019999999998     46.678600000000003
C      49.065349999999995     46.839179999999999     48.173500000000004
C      48.080150000000003     47.813239999999993     46.233100000000000
C      48.578749999999999     46.615159999999996     46.857500000000002
H      45.937449999999998     50.357320000000001     49.090000000000003
H      46.318650000000005     49.263719999999992     50.091000000000001
H      48.001149999999996     48.396019999999993     50.809699999999999
H      49.009749999999997     47.025309999999998     50.659900000000000
H      47.096149999999994     49.791020000000003     45.907900000000005
H      50.062550000000002     46.294129999999996     48.501400000000004
H      48.084649999999996     47.739959999999996     45.190300000000001
H      48.879149999999996     45.642679999999999     46.332900000000002
