56

C      52.072899999999997     46.837209999999992     46.323809999999987
C      53.102600000000010     47.064409999999995     45.357449999999993
C      49.456500000000005     50.859709999999993     46.158009999999990
C      51.039900000000003     47.689509999999999     46.571219999999983
C      53.292299999999997     48.340209999999999     44.864109999999989
C      49.896400000000000     49.502510000000001     46.352139999999991
C      52.252899999999997     50.756209999999996     44.897799999999989
C      51.147500000000001     48.996009999999998     45.917819999999992
C      52.163899999999998     49.364710000000002     44.917869999999994
C      50.069900000000004     47.542909999999999     47.625169999999997
C      48.041700000000006     48.962609999999998     48.231239999999993
C      49.198599999999999     48.613909999999997     47.399189999999990
C      49.873699999999999     52.301510000000007     46.308849999999993
C      48.216500000000003     48.475110000000001     49.565739999999991
C      52.065500000000000     51.140009999999997     43.418031999999990
C      54.330200000000005     48.536409999999989     43.706113999999992
C      51.871600000000001     45.591299999999997     47.152859999999990
C      46.217900000000000     47.525310000000005     51.201579999999993
C      45.552500000000002     46.623410000000000     50.629969999999993
C      41.930300000000003     45.091940000000001     48.938179999999988
C      44.832300000000004     45.655929999999998     50.045649999999995
C      42.379199999999997     44.754500000000000     50.337350000000001
C      43.813600000000001     45.116459999999996     50.925309999999982
C      41.397600000000004     43.993069999999996     51.142679999999984
C      44.069600000000001     44.384969999999996     52.123869999999997
C      41.846100000000007     43.319229999999997     52.273069999999990
C      43.170200000000001     43.558720000000001     52.823439999999991
C      48.028100000000002     50.938510000000001     45.664289999999994
H      55.370300000000000     48.655310000000000     44.122669999999992
H      53.829300000000003     46.314940000000000     44.984599999999993
H      53.116900000000001     51.410609999999991     45.285499999999992
H      49.935700000000004     46.863309999999998     48.529989999999984
H      47.453900000000004     49.846910000000001     48.016289999999984
H      47.628399999999999     50.926310000000001     46.722059999999985
H      48.915100000000002     47.653309999999998     49.673369999999991
H      51.265400000000000     50.624009999999998     42.932399999999994
H      52.920500000000004     51.127809999999997     42.661100000000005
H      51.941000000000003     52.306910000000002     43.454291999999988
H      54.015000000000001     47.761009999999999     43.063700000000004
H      54.668500000000009     49.313409999999990     43.199445999999988
H      52.803200000000004     44.911769999999997     47.247479999999982
H      51.687500000000000     46.014089999999996     48.202839999999995
H      46.197500000000005     47.656109999999998     52.390029999999989
H      40.881200000000007     45.397779999999997     48.744819999999990
H      42.494200000000006     45.805630000000001     48.292469999999994
H      42.078800000000001     44.104770000000002     48.368729999999985
H      45.176299999999998     45.100299999999997     49.066469999999981
H      40.629700000000000     43.587409999999998     50.464169999999989
H      45.115099999999998     43.795919999999995     52.028469999999992
H      41.035800000000002     42.600589999999997     52.808109999999985
H      43.767800000000001     42.749510000000001     53.338899999999995
H      50.682700000000004     45.375859999999996     47.146270000000001
H      47.708700000000007     52.003110000000000     45.239939999999990
H      47.598300000000002     49.815110000000004     45.337199999999989
O      50.191400000000002     53.399410000000003     46.479539999999993
O      47.186400000000006     48.524810000000002     50.518119999999989
