17

C      47.856299999999990     49.563049999999997     49.904549999999993
C      48.972400000000000     48.540750000000003     49.750450000000001
C      47.017499999999998     49.694149999999993     48.803550000000001
C      48.241799999999991     47.801050000000004     48.561850000000000
C      47.190799999999996     48.534050000000001     47.865449999999996
C      48.790900000000001     46.569350000000000     47.952650000000006
C      46.542200000000001     48.347250000000003     46.585650000000001
C      47.964499999999994     46.272050000000007     46.871350000000000
C      47.024299999999997     47.074350000000003     46.240250000000003
H      47.903999999999989     50.237850000000002     50.747550000000004
H      50.065700000000000     48.997050000000002     49.495649999999998
H      49.263500000000001     48.079850000000000     50.623850000000004
H      46.485999999999997     50.531649999999999     48.696550000000002
H      49.570699999999995     45.895650000000003     48.231650000000002
H      45.934300000000000     49.091550000000005     45.945149999999998
H      48.535099999999993     45.468350000000001     46.434849999999997
H      46.493099999999998     46.967750000000002     45.252449999999996
