20

C      50.116549999999997     48.680399999999985     49.468850000000003
C      50.492450000000005     49.169699999999992     47.610250000000001
C      49.329149999999998     47.466999999999999     49.245150000000002
C      49.139250000000004     49.337899999999991     46.933050000000001
C      48.091650000000001     47.787399999999991     48.553050000000006
C      48.022250000000000     48.708399999999997     47.367550000000001
C      47.110250000000008     46.849199999999996     48.830550000000009
C      46.781649999999999     48.690399999999997     46.516849999999998
C      45.910650000000004     46.932199999999995     48.208050000000007
C      45.833950000000002     47.858999999999995     47.159250000000007
H      49.879350000000002     49.473799999999997     50.464250000000000
H      51.055850000000007     48.512999999999991     49.836050000000007
H      51.160950000000000     50.068500000000000     47.337350000000008
H      51.062350000000009     48.364699999999999     47.244950000000010
H      49.632450000000006     46.383099999999999     49.303649999999998
H      49.073549999999997     49.645499999999998     46.006450000000008
H      46.572749999999999     49.124599999999987     45.535750000000000
H      47.299949999999995     45.931500000000000     49.334949999999999
H      44.839050000000000     47.682899999999989     46.736049999999999
H      45.181650000000005     46.152699999999996     48.297150000000009
