18

C      49.534449999999993     50.072649999999989     47.243749999999991
C      46.765850000000000     49.801950000000005     48.570649999999993
C      49.011049999999997     48.678950000000000     47.476649999999999
C      47.850349999999999     48.619950000000003     48.261850000000003
C      49.372250000000001     47.432950000000005     46.856249999999996
C      47.601349999999996     47.441749999999999     49.046749999999996
C      48.868150000000000     46.258949999999999     47.430249999999994
C      48.115650000000002     46.111850000000004     48.673049999999996
H      46.854050000000001     50.014650000000003     49.590349999999994
H      49.840949999999999     50.087649999999996     46.072150000000001
H      50.191650000000003     50.035150000000002     48.320049999999988
H      46.611550000000001     50.732050000000001     47.996549999999992
H      45.808349999999997     49.392449999999997     48.719050000000003
H      50.167749999999991     47.436750000000004     46.132649999999998
H      46.910150000000002     47.444649999999996     49.927849999999999
H      49.132849999999998     45.316749999999999     47.056249999999999
H      47.667249999999996     45.140050000000002     48.903950000000002
H      48.814149999999998     50.859949999999998     47.288949999999993
