6

C      47.785299999999992     48.287849999999992     48.535149999999994
C      48.243000000000002     47.646650000000001     47.411250000000003
H      48.327000000000005     48.107849999999992     49.382649999999998
H      47.136599999999994     49.247549999999997     48.378250000000001
H      47.676499999999997     47.635449999999999     46.617350000000002
H      48.863400000000006     46.752450000000003     47.476350000000004
