80

C      44.124000000000002     47.506614999999989     43.823949999999996
C      45.289400000000001     51.808837000000004     49.258850000000002
C      43.342799999999997     48.879714999999990     43.785750000000000
C      44.997299999999996     52.541155000000003     47.905050000000010
C      44.624700000000004     46.983814999999993     45.049849999999999
C      45.342799999999997     50.428415000000001     49.317050000000002
C      43.613500000000002     49.730114999999998     44.919750000000001
C      44.718900000000005     51.582205000000002     46.845050000000008
C      45.049500000000009     47.227814999999993     47.568950000000008
C      45.159100000000009     48.153514999999999     48.543150000000004
C      44.776700000000005     47.760814999999994     46.268650000000001
C      45.152699999999996     49.541514999999990     48.337850000000010
C      44.505200000000002     49.234414999999998     46.026750000000000
C      44.720200000000006     50.104114999999993     47.064650000000007
C      43.305999999999997     51.094814999999997     44.790050000000001
C      44.072400000000002     51.988179000000002     45.583649999999999
C      44.206699999999998     46.851614999999995     42.618150000000007
C      43.273700000000005     47.215314999999990     41.572550000000000
C      42.427300000000002     48.300614999999993     41.579349999999998
C      42.625200000000007     49.242714999999990     42.623150000000003
C      42.196399999999997     50.666815000000000     42.456049999999998
C      42.622299999999996     51.518007000000011     43.513950000000001
C      45.659700000000001     52.749775000000014     50.262149999999998
C      46.175100000000000     53.989345000000000     49.803350000000002
C      45.640799999999999     54.705164999999994     48.696950000000008
C      44.917900000000003     53.934675000000006     47.778449999999999
C      49.897500000000008     43.297015000000002     51.909650000000006
C      48.466000000000008     42.874515000000002     52.204349999999998
C      48.638500000000008     45.773614999999992     47.897449999999999
C      47.508099999999999     44.753514999999993     47.805250000000008
C      50.170000000000002     44.556415000000001     51.318150000000010
C      47.673600000000008     43.572215000000000     51.307350000000007
C      49.566699999999997     45.821714999999998     49.004550000000002
C      47.075699999999998     44.249515000000002     49.061550000000004
C      49.267499999999998     45.123814999999993     50.240850000000002
C      48.047499999999999     44.439414999999997     50.113850000000006
C      50.843000000000004     42.611215000000001     52.805950000000003
C      50.561300000000003     41.518114999999995     53.532150000000009
C      49.229700000000008     41.133814999999998     53.646549999999998
C      48.063600000000008     41.784514999999999     53.129049999999999
C      48.505899999999997     46.978115000000003     47.038850000000004
C      47.463400000000007     46.882314999999991     46.048350000000006
C      46.478000000000009     45.867414999999994     45.806850000000004
C      46.440500000000000     44.922314999999998     46.768149999999999
C      52.168599999999998     43.077015000000003     52.561550000000004
C      53.195700000000002     42.222814999999997     53.057750000000006
C      52.880600000000001     41.146014999999991     54.008249999999997
C      51.574700000000007     40.870914999999997     54.429150000000000
C      52.427800000000005     44.457014999999998     52.069650000000003
C      51.407499999999999     45.233514999999997     51.464250000000000
C      53.923600000000008     44.807114999999996     51.830649999999999
H      45.703000000000003     49.880915000000002     50.274450000000009
H      44.821100000000001     46.092914999999991     47.829950000000004
H      45.088400000000007     47.899814999999990     49.665849999999999
H      44.225999999999999     53.142144999999999     45.207450000000001
H      44.764600000000002     45.937114999999991     42.457150000000006
H      43.068100000000001     46.434114999999991     40.725050000000003
H      41.751500000000007     48.394314999999992     40.670150000000000
H      41.518299999999996     50.943114999999992     41.645850000000003
H      42.210099999999997     52.601145000000002     43.575650000000003
H      45.510199999999998     52.178105000000002     51.260449999999999
H      46.866200000000006     54.502955000000000     50.527549999999998
H      45.877200000000002     55.714285000000004     48.924349999999997
H      44.334100000000007     54.494765000000001     46.863350000000004
H      46.681600000000003     43.123014999999995     51.391350000000010
H      50.268000000000001     46.616214999999997     49.020350000000001
H      46.205700000000007     43.683214999999990     49.541050000000006
H      48.978400000000008     40.563414999999992     54.564750000000011
H      47.000600000000006     41.521014999999991     53.469650000000009
H      49.273400000000009     47.752614999999992     47.035750000000000
H      47.290400000000005     47.956314999999989     45.497549999999997
H      45.658699999999996     44.283315000000002     46.828650000000003
H      54.236500000000007     42.241315000000000     52.678150000000009
H      53.677599999999998     40.807214999999999     54.635750000000009
H      51.293999999999997     40.285714999999996     55.329850000000000
H      51.703299999999999     46.027414999999991     50.858250000000005
H      54.481700000000004     44.790714999999992     52.845350000000003
H      54.180800000000005     44.122114999999994     50.808349999999997
H      54.002600000000001     45.792614999999998     51.047950000000007
O      45.430900000000008     45.985614999999996     44.820250000000009
