6

C      48.378849999999993     47.702550000000002     48.462849999999982
C      47.460949999999997     48.179150000000000     47.551349999999999
H      49.334350000000001     47.242449999999998     48.403149999999997
H      48.148949999999999     48.181550000000009     49.459750000000000
H      46.665649999999999     48.757550000000002     48.027649999999994
H      47.179349999999999     47.814150000000005     46.540250000000000
