6

C      48.072399999999995     47.361799999999988     47.707249999999995
C      47.727800000000002     48.679100000000005     48.047049999999999
H      47.475600000000000     46.761899999999997     46.976050000000001
H      48.837100000000000     46.776499999999999     48.330349999999996
H      47.162900000000000     49.209800000000001     47.256349999999998
H      47.896000000000001     49.238100000000003     49.023949999999999
