19

C      48.686049999999987     47.291149999999988     50.478299999999990
C      47.803449999999998     50.365450000000010     47.103099999999998
C      47.948149999999998     48.102450000000005     49.704899999999995
C      47.989349999999995     48.849950000000007     47.049899999999994
C      48.234449999999995     48.028649999999999     48.159499999999994
C      47.702249999999999     48.285349999999994     45.808499999999995
C      47.946349999999995     46.675049999999999     47.698200000000000
C      48.153549999999996     46.998149999999995     45.456800000000001
C      48.551049999999996     46.137249999999995     46.585899999999995
H      49.310150000000007     46.622550000000004     50.078299999999999
H      46.689849999999993     50.396850000000001     46.802599999999998
H      48.611249999999998     47.120050000000006     51.629099999999994
H      47.664849999999994     50.717650000000006     48.274699999999996
H      48.355449999999998     50.977549999999994     46.241399999999999
H      47.301949999999998     48.813149999999993     50.131900000000002
H      47.290549999999996     49.126050000000006     45.160100000000000
H      47.592250000000000     45.868549999999999     48.270499999999998
H      48.399649999999994     46.673149999999993     44.370900000000006
H      48.770650000000003     45.022450000000006     46.230099999999993
