35

C      46.254449999999991     48.549649999999993     49.781449999999992
C      46.487049999999996     47.117249999999999     49.639050000000012
C      50.550849999999997     49.360150000000004     47.648850000000010
C      51.020449999999997     47.989649999999997     47.491550000000004
C      47.506550000000004     49.271450000000002     50.116450000000015
C      47.798850000000002     46.711449999999999     49.108150000000009
C      49.595450000000000     49.916550000000001     48.718450000000004
C      50.283349999999999     47.197450000000003     48.358250000000012
C      48.634550000000004     48.953350000000000     49.260550000000009
C      48.989650000000012     47.612150000000000     48.980050000000006
C      44.853750000000005     48.741650000000000     50.168650000000000
C      44.193749999999994     47.545549999999999     50.484549999999999
C      44.290250000000000     46.134250000000002     50.137350000000012
C      45.584249999999997     45.898650000000004     49.789550000000006
C      50.936149999999998     50.262550000000005     46.589449999999999
C      52.031750000000002     49.625450000000001     45.748050000000006
C      51.977950000000007     48.226050000000001     45.598350000000011
C      47.209750000000014     50.524650000000008     50.924650000000000
C      49.466750000000005     51.293149999999997     48.994350000000011
C      47.850149999999999     45.333550000000002     49.012150000000005
C      46.463350000000005     44.864649999999997     49.221650000000011
H      50.637350000000012     46.302050000000001     48.671550000000011
H      44.250150000000005     49.739450000000005     50.080550000000002
H      43.209649999999996     47.583550000000002     51.130050000000011
H      43.445350000000005     45.466349999999998     50.257550000000009
H      51.249150000000000     51.353850000000001     46.286250000000010
H      52.790350000000004     50.258949999999999     45.198950000000011
H      52.462750000000000     48.116650000000000     44.596350000000001
H      46.236549999999994     50.196650000000005     51.403649999999999
H      50.366950000000003     51.681250000000006     48.242850000000004
H      48.822050000000004     52.099950000000000     49.564850000000007
H      48.797150000000002     44.626449999999998     48.799350000000004
H      46.462250000000012     43.900050000000000     48.943250000000006
N      51.674750000000003     47.364950000000000     46.513050000000007
O      47.672750000000008     51.678349999999995     50.919850000000011
