17

C      46.039899999999989     48.689599999999992     47.063449999999996
C      49.245299999999993     49.793700000000001     47.026550000000000
C      47.222400000000000     48.142299999999999     47.722549999999998
C      48.609199999999994     48.351799999999997     47.365449999999996
C      46.914799999999993     47.210700000000003     48.762050000000002
C      49.776699999999998     47.640299999999996     47.945949999999996
C      47.934699999999992     46.377800000000001     49.214849999999998
C      49.376899999999992     46.722300000000004     48.922849999999997
H      46.079199999999993     49.569699999999997     46.409250000000000
H      45.140599999999999     48.046300000000002     47.293750000000003
H      49.276000000000003     49.478000000000009     46.025250000000000
H      48.523500000000006     50.511200000000002     47.279049999999998
H      45.894699999999993     47.108499999999999     48.824349999999995
H      50.859400000000001     47.802999999999997     47.757949999999994
H      47.686999999999998     45.488799999999998     49.974750000000000
H      49.968699999999991     45.883499999999998     49.593949999999992
H      50.336599999999997     50.180999999999997     47.564149999999998
