22

C      46.560499999999990     49.578014999999994     45.977149999999995
C      47.578600000000009     45.591445000000007     47.335250000000002
C      46.052199999999999     49.496504999999999     47.332549999999998
C      47.297400000000010     46.923344999999983     47.390249999999995
C      47.188400000000001     49.208105000000003     48.352249999999998
C      47.924100000000010     47.939171999999999     48.323250000000002
C      47.973299999999995     50.274334999999994     49.028949999999995
C      49.193200000000004     47.709408999999994     48.998350000000002
C      48.855200000000011     49.944765000000004     49.918450000000007
C      49.562800000000010     48.668184999999994     49.880049999999997
H      46.513800000000003     48.495329999999996     45.507050000000007
H      46.857100000000003     50.566535000000002     45.758750000000006
H      45.814499999999995     49.764254999999991     45.033150000000006
H      48.247399999999999     45.091645000000014     48.110649999999993
H      47.036600000000007     44.957145000000011     46.585250000000002
H      45.425399999999996     48.604024999999993     47.257450000000006
H      45.469099999999997     50.358755000000002     47.713149999999999
H      46.582999999999998     47.353045000000009     46.680850000000007
H      47.189599999999999     51.042854999999989     49.035149999999987
H      49.854399999999998     46.719445000000022     48.776449999999997
H      49.131399999999999     50.516485000000003     50.966849999999994
H      50.574600000000004     48.557294999999996     50.377650000000003
