6

C      47.794199999999996     48.273914999999995     47.438449999999989
C      48.185600000000008     47.410805000000003     48.456049999999998
H      46.912700000000001     48.994884999999996     47.645750000000000
H      48.351200000000006     48.653265000000005     46.608449999999998
H      47.619500000000002     47.348435000000002     49.391550000000002
H      49.087299999999999     47.005115000000004     48.355849999999997
