20

C      49.389014999999986     47.561099999999996     49.398599999999988
C      50.481275000000004     47.971100000000000     49.942299999999996
C      48.158054999999997     47.122800000000005     48.867899999999999
C      47.053044999999990     49.946800000000003     48.255699999999997
C      47.419834999999992     47.417400000000001     47.532399999999996
C      47.140584999999994     48.766900000000000     47.283200000000001
C      46.914684999999992     46.311800000000005     46.886899999999997
C      46.459334999999996     49.171200000000006     46.063699999999997
C      45.922564999999992     46.693100000000001     45.926299999999998
C      45.671995999999993     48.112900000000003     45.561399999999999
H      47.893884999999990     49.274600000000000     48.943799999999996
H      46.149524999999997     50.013800000000010     49.012099999999997
H      51.318884999999995     48.259999999999998     49.187599999999996
H      50.855664999999995     47.589700000000001     50.871099999999998
H      47.959304999999993     46.051400000000001     48.828899999999997
H      47.793044999999992     50.714500000000001     47.665299999999995
H      47.069794999999992     45.285499999999999     47.351599999999998
H      46.185214999999992     50.226900000000008     46.066099999999999
H      45.041788999999994     46.029200000000003     45.575399999999995
H      44.681115000000005     48.509399999999999     45.128900000000002
