6

C      47.922349999999994     47.235199999999999     48.133099999999999
C      47.808450000000008     48.371099999999998     47.313800000000008
H      47.137250000000009     47.410600000000002     49.026800000000001
H      48.894550000000010     46.673400000000001     48.327400000000004
H      48.948549999999997     48.704200000000000     46.973199999999999
H      47.051450000000003     49.326599999999999     47.166699999999999
