21

C      47.959524999999985     48.939549999999990     46.122799999999984
C      47.803525000000000     50.213049999999996     45.631399999999992
C      47.676224999999995     48.763649999999998     47.744099999999996
C      49.839413000000000     46.267249999999990     47.789699999999989
C      47.527224999999994     47.554850000000002     48.004899999999999
C      48.541024999999998     46.622550000000004     48.527099999999997
C      46.263924999999993     47.062550000000002     48.493399999999987
C      48.336724999999994     45.599750000000000     49.533299999999990
C      46.072925000000005     46.472849999999994     49.768699999999988
C      47.105425000000004     45.489849999999990     50.245500000000000
H      47.932324999999999     47.970450000000000     45.834199999999989
H      47.792525000000005     49.674149999999997     48.394099999999987
H      48.038525000000000     51.092950000000002     46.422499999999992
H      47.340425000000003     50.441949999999991     44.710000000000001
H      50.925275000000006     45.788849999999996     48.268899999999995
H      50.156575000000004     47.398550000000000     47.503099999999996
H      49.718702000000015     45.986949999999993     46.713899999999988
H      45.477224999999997     47.143450000000001     47.538699999999999
H      49.143377000000008     44.913950000000000     49.656699999999994
H      45.074724999999994     45.998350000000002     50.056599999999996
H      47.416724999999992     44.907049999999998     51.289999999999999
