17

C      49.362199999999987     49.763849999999991     49.682849999999988
C      49.556399999999996     49.132149999999996     48.254449999999999
C      48.665999999999997     48.091250000000002     47.946350000000002
C      47.261499999999998     47.978250000000003     48.644649999999992
C      48.898499999999999     47.177350000000004     46.820249999999994
C      46.272499999999994     47.053250000000006     48.170250000000003
C      47.876199999999997     46.374949999999998     46.402650000000001
C      46.596099999999993     46.243750000000006     46.984949999999991
H      49.000100000000003     48.984150000000000     50.438449999999996
H      48.540599999999998     50.622050000000002     49.802550000000004
H      50.097900000000010     50.402950000000004     50.144550000000002
H      47.171099999999996     48.627750000000006     49.637250000000002
H      49.935299999999998     47.186350000000004     46.355849999999997
H      45.418300000000002     47.033749999999998     48.673150000000000
H      48.216499999999996     45.734250000000003     45.561550000000004
H      45.755700000000004     45.377949999999998     46.556949999999993
H      50.581699999999998     49.180049999999994     47.536650000000002
