38

C      44.423999999999992     50.232149999999990     48.213949999999990
C      43.440400000000004     48.943250000000006     48.937349999999995
C      45.499400000000001     49.461749999999995     47.456750000000000
C      44.413400000000003     48.638350000000003     50.109249999999989
C      46.093600000000002     48.325149999999994     48.326349999999991
C      45.783999999999999     48.164450000000002     49.648949999999999
C      47.188600000000001     47.798550000000006     47.646949999999990
C      46.939900000000002     47.915149999999997     50.594249999999988
C      48.201700000000002     47.079949999999997     48.478349999999992
C      48.098800000000004     47.526250000000005     49.891649999999998
C      49.473100000000002     46.526550000000000     47.646949999999990
C      51.949400000000004     45.835949999999997     45.341849999999994
C      50.600900000000003     47.360649999999993     47.151349999999994
C      51.657600000000002     47.012349999999998     46.293449999999993
C      50.639699999999998     48.542850000000001     47.888849999999991
C      52.477899999999998     48.049949999999995     45.743849999999995
C      51.299199999999999     49.537250000000000     47.163950000000000
C      52.150800000000004     49.429749999999999     46.064349999999990
H      43.638800000000003     50.968750000000000     48.015449999999987
H      44.696700000000000     50.704650000000001     49.118549999999999
H      43.291200000000003     48.071050000000000     48.336549999999988
H      42.758800000000001     49.890150000000006     48.919249999999991
H      45.274399999999993     49.660449999999997     46.370849999999990
H      46.426200000000001     50.047249999999991     47.524049999999988
H      44.681099999999994     49.651150000000001     50.759749999999997
H      44.057700000000004     48.416650000000004     51.060350000000000
H      47.374099999999991     47.754850000000005     46.553049999999999
H      46.773900000000005     47.376850000000005     51.681049999999999
H      52.624199999999995     45.031250000000000     45.451749999999990
H      48.767200000000010     47.093249999999998     50.541550000000001
H      48.964900000000007     46.251350000000002     46.585650000000001
H      49.735899999999994     45.592150000000004     48.325049999999990
H      51.988799999999998     46.205050000000000     44.318950000000001
H      51.042999999999999     45.203549999999993     45.609849999999994
H      49.840700000000005     48.941450000000003     48.670149999999992
H      53.241199999999999     47.760049999999993     44.882149999999996
H      51.307799999999993     50.702149999999989     47.373949999999994
H      52.322000000000010     50.279749999999993     45.420049999999989
