6

C      47.631994999999989     47.492799999999988     48.237449999999995
C      48.458214999999996     48.579000000000008     47.857950000000002
H      46.524564999999996     47.074199999999990     47.771749999999997
H      47.818685000000002     47.001599999999996     49.214050000000000
H      48.547844999999995     48.998400000000004     46.785950000000000
H      49.475435000000004     48.422400000000010     48.216450000000002
