21

C      45.888544999999993     49.027149999999999     46.431389999999993
C      47.421145000000003     49.372950000000003     46.668589999999995
C      46.993244999999995     48.651850000000003     49.540920000000000
C      48.395845000000001     48.534750000000010     47.511989999999997
C      48.264344999999999     48.095150000000004     48.815610000000007
C      49.228451999999997     47.721850000000003     46.613889999999998
C      48.925396000000006     46.937850000000005     49.534360000000007
C      49.853455000000004     46.573550000000004     47.119489999999999
C      49.640585000000009     46.228250000000010     48.521521000000007
H      45.670245000000001     47.996250000000003     45.883989999999997
H      45.412744999999994     50.249550000000013     46.234790000000004
H      45.508945000000004     48.401750000000007     47.251490000000004
H      47.430045000000000     49.135550000000009     50.491720000000015
H      47.694944999999997     49.960650000000015     45.738990000000001
H      47.177344999999995     50.326949999999997     47.453090000000003
H      46.404445000000003     49.591350000000006     49.004450000000006
H      46.352544999999999     47.738350000000004     49.661290000000008
H      49.199496000000003     47.879250000000006     45.456789999999998
H      48.774093000000015     46.644450000000006     50.543210000000002
H      50.430525000000010     45.726650000000006     46.662790000000001
H      50.587255000000006     45.673050000000003     48.567305000000005
