55

C      50.386399999999988     50.600600000000000     48.924149999999997
C      50.213999999999999     51.236399999999989     47.606550000000006
C      45.725999999999999     49.729300000000009     44.749649999999995
C      50.384000000000000     49.140400000000000     49.300050000000006
C      45.188499999999998     48.425399999999996     44.718349999999994
C      49.472399999999993     50.355500000000006     46.724550000000001
C      46.315299999999993     46.057600000000008     45.738850000000006
C      47.295899999999996     45.698599999999999     46.602049999999998
C      46.152499999999996     47.595500000000001     45.471550000000001
C      49.815299999999993     48.271700000000010     48.218849999999996
C      48.250499999999995     46.801299999999998     47.373449999999998
C      47.123099999999994     48.481300000000005     45.891349999999996
C      48.862499999999997     49.114300000000000     47.342750000000002
C      48.178100000000001     48.022500000000008     46.684750000000001
C      51.187199999999997     51.274400000000000     49.821350000000002
C      51.806199999999997     52.589999999999989     49.284150000000004
C      51.612399999999994     53.120299999999986     47.952850000000005
C      50.725200000000001     52.454700000000003     47.068450000000006
C      45.688499999999998     44.876000000000005     45.104750000000003
C      45.997899999999994     43.462000000000003     45.261749999999999
C      47.299599999999998     43.463700000000003     45.861650000000004
C      47.868499999999997     44.541499999999999     46.631949999999996
C      51.585399999999993     50.732999999999990     51.135550000000002
C      52.196599999999997     51.783300000000011     51.940050000000006
C      52.235600000000005     53.244200000000006     51.613850000000006
C      52.189699999999988     53.576000000000008     50.225649999999995
C      50.679400000000001     48.546400000000006     50.547249999999998
C      51.158000000000001     49.475099999999998     51.503149999999998
C      50.887000000000000     52.817199999999985     45.656349999999996
C      43.822899999999997     48.173000000000002     44.169050000000006
C      47.552199999999999     42.099000000000004     46.564050000000002
C      50.277400000000000     51.769399999999990     44.571949999999994
H      43.105300000000000     48.789400000000001     43.344450000000002
H      49.666100000000000     50.404100000000000     45.595949999999995
H      45.383599999999994     50.774799999999999     43.992449999999998
H      52.209299999999999     54.001200000000011     48.196050000000007
H      45.210200000000000     45.320400000000006     44.157649999999997
H      45.611999999999995     42.759700000000009     44.672850000000004
H      48.738599999999991     44.262200000000007     47.348750000000003
H      52.894700000000000     51.724699999999999     52.655549999999998
H      52.657100000000000     54.228599999999986     52.376049999999999
H      52.367599999999996     54.650099999999995     49.642050000000005
H      50.646900000000002     47.974900000000005     47.447949999999999
H      51.224800000000002     48.944200000000009     52.483650000000004
H      50.595799999999997     47.597499999999997     50.797950000000007
H      46.681799999999996     41.463600000000000     46.532750000000000
H      48.263899999999992     41.349900000000005     45.842549999999996
H      48.103799999999993     42.402500000000003     47.538550000000008
H      49.123300000000000     51.635100000000008     44.689050000000002
H      50.905000000000001     50.817500000000010     44.302150000000005
H      49.909499999999994     52.203900000000004     43.648350000000001
H      43.924099999999996     47.155699999999996     44.253850000000007
N      46.809799999999996     49.798800000000000     45.435350000000007
N      49.194099999999992     46.761600000000001     48.235949999999995
O      50.879099999999994     53.843599999999995     45.029950000000007
