22

C      46.856949999999991     46.911549999999991     46.260299999999994
C      46.986350000000002     48.193950000000001     45.629100000000001
C      46.613749999999996     46.840750000000000     47.862700000000004
C      48.493650000000002     48.641750000000002     46.171900000000001
C      47.605149999999995     47.915650000000014     48.412100000000002
C      48.464849999999998     48.768550000000005     47.674900000000001
C      47.713350000000005     47.855750000000000     49.827800000000011
C      49.456249999999997     49.446650000000005     48.345800000000011
C      49.029849999999996     48.200050000000005     50.408100000000005
C      49.726450000000000     49.302850000000007     49.733000000000004
H      47.761849999999995     46.471850000000003     46.333699999999993
H      46.057850000000002     46.376649999999998     45.837800000000001
H      46.197350000000000     48.973349999999996     45.968600000000002
H      47.041049999999998     48.090750000000000     44.534199999999998
H      46.944149999999993     45.879549999999995     48.064400000000006
H      45.684749999999994     47.098249999999993     48.444400000000002
H      48.774450000000002     49.655150000000006     45.608300000000000
H      49.139749999999999     47.971350000000001     46.057500000000005
H      46.654449999999997     47.450450000000004     50.312500000000000
H      50.315250000000006     50.120450000000005     47.810200000000009
H      49.064149999999998     47.859549999999999     51.465800000000002
H      50.288749999999993     50.100949999999997     50.343900000000005
