38

C      49.488100000000003     47.932349999999992     51.901499999999999
C      50.736700000000006     49.098349999999996     47.899099999999997
C      49.979500000000009     49.146549999999998     52.305500000000002
C      50.514100000000006     49.712450000000004     49.217199999999998
C      49.615299999999998     50.404949999999999     51.458800000000004
C      49.333400000000005     50.119450000000001     49.837200000000003
C      46.496000000000002     50.406149999999997     45.955300000000001
C      48.045800000000007     50.426649999999995     49.402899999999995
C      47.164200000000001     49.878650000000000     47.043100000000003
C      47.511100000000006     50.809150000000002     48.085100000000004
C      45.951900000000002     49.563450000000003     44.932400000000008
C      47.537700000000008     48.246549999999999     43.207200000000007
C      46.175600000000010     48.108149999999995     45.240699999999997
C      46.948200000000007     47.364149999999995     44.362299999999998
C      45.384000000000007     47.323450000000001     46.274700000000003
C      47.397900000000000     46.136150000000001     44.977399999999996
C      45.169300000000000     45.867849999999997     45.863300000000002
C      46.380500000000005     45.267949999999999     45.446199999999997
H      49.169200000000011     47.775449999999999     50.879500000000000
H      49.536300000000004     46.939850000000000     52.323600000000006
H      50.583199999999998     51.032049999999998     51.829600000000006
H      49.801900000000010     48.812449999999998     47.374199999999995
H      50.379600000000003     49.187950000000001     53.372999999999998
H      51.420400000000008     49.694050000000004     49.698799999999999
H      51.729199999999999     49.001949999999994     47.293100000000003
H      48.773600000000009     51.006050000000002     51.852700000000006
H      47.499200000000009     50.360849999999999     50.357000000000006
H      47.383500000000005     48.695349999999991     47.174500000000002
H      47.277000000000008     51.860349999999997     47.997900000000008
H      46.083400000000005     51.432350000000000     45.916800000000002
H      44.940500000000007     49.915649999999999     44.433799999999998
H      48.052600000000005     49.090350000000001     43.775299999999994
H      48.546100000000003     47.735349999999997     42.627000000000002
H      46.483899999999998     48.676349999999999     42.802600000000005
H      45.181400000000004     47.581350000000000     47.215600000000002
H      48.186799999999998     45.854849999999999     44.302200000000006
H      44.270800000000001     45.402349999999998     46.414999999999999
H      46.364000000000011     44.139650000000003     45.260899999999999
