19

C      47.699099999999994     48.196799999999996     45.624449999999996
C      48.260499999999993     46.699500000000008     45.721150000000002
C      47.460900000000002     48.944099999999999     46.732650000000014
C      48.624700000000004     46.367399999999996     47.131850000000007
C      47.960999999999999     48.570200000000007     48.080450000000006
C      48.411200000000001     47.248899999999999     48.266750000000002
C      48.020000000000010     49.588699999999996     49.209850000000010
C      48.437200000000004     46.867100000000001     49.700550000000014
C      48.335300000000004     49.220800000000004     50.472749999999998
C      48.569999999999993     47.786200000000001     50.660950000000007
H      49.272300000000001     46.517999999999994     45.244250000000008
H      48.943899999999999     45.263500000000001     47.119650000000000
H      47.400500000000001     48.207600000000006     44.411250000000003
H      46.727699999999999     49.906699999999994     46.778750000000009
H      47.383600000000001     46.287600000000005     45.307950000000005
H      48.068899999999999     50.736499999999999     49.115650000000002
H      48.580299999999994     45.786800000000007     50.021949999999997
H      48.237200000000001     49.982899999999994     51.460850000000008
H      48.781400000000005     47.255500000000005     51.588749999999997
