18

C      49.649549999999991     46.332399999999993     49.673349999999999
C      48.360050000000001     46.842799999999997     49.843950000000000
C      47.423749999999998     49.700299999999999     49.489849999999997
C      47.984949999999998     47.462200000000003     48.549950000000003
C      47.381150000000005     48.762599999999999     48.409349999999996
C      47.882950000000008     46.690300000000001     47.334949999999999
C      46.533349999999999     48.909299999999995     47.143549999999998
C      47.324950000000001     46.809699999999999     46.123449999999998
C      46.481150000000000     47.935200000000002     46.082850000000001
H      49.984150000000000     46.188099999999999     48.621550000000006
H      46.630250000000004     50.459600000000002     49.122350000000004
H      47.842650000000006     47.092400000000005     50.847550000000005
H      48.297950000000000     49.645099999999999     50.116049999999994
H      48.365050000000011     45.685899999999997     47.408949999999997
H      46.077950000000001     50.030899999999995     46.866750000000003
H      47.415850000000006     46.161999999999999     45.152449999999995
H      46.015850000000000     48.298799999999993     45.251650000000005
H      49.797449999999998     45.540399999999998     50.385650000000005
