22

C      49.694149999999986     49.334949999999992     46.006499999999988
C      47.370549999999994     49.724750000000007     46.382600000000004
C      48.289249999999996     49.003549999999997     46.666100000000000
C      46.415649999999999     46.180750000000003     46.757799999999996
C      48.086150000000004     48.075550000000000     47.757199999999990
C      47.388649999999998     46.762049999999995     47.762599999999999
C      48.712249999999997     48.487649999999995     48.981299999999997
C      47.345349999999996     45.835750000000004     48.855499999999999
C      48.810949999999991     47.508249999999997     50.014500000000005
C      47.902349999999998     46.447849999999995     50.029900000000005
H      46.984150000000000     46.072350000000000     45.828600000000002
H      50.462649999999996     49.163950000000007     46.744700000000002
H      49.120149999999995     48.609050000000003     45.096399999999996
H      45.537350000000004     46.818350000000002     47.014699999999998
H      47.243449999999996     50.998550000000002     46.379799999999996
H      49.977149999999995     49.760250000000006     45.044800000000002
H      46.071950000000001     45.228050000000003     47.209499999999998
H      46.518050000000002     49.139050000000005     46.108899999999998
H      48.837050000000005     49.562249999999999     49.273400000000002
H      47.728650000000002     45.901350000000001     50.955199999999998
H      49.660250000000005     47.568850000000005     50.634599999999999
H      46.605549999999994     45.001449999999998     49.189299999999996
