17

C      47.455499999999994     48.676049999999996     50.073749999999997
C      47.112799999999993     47.234150000000000     49.740949999999998
C      47.932699999999997     49.364249999999998     48.999850000000009
C      47.082700000000003     47.355850000000004     48.187150000000003
C      48.099199999999996     48.236249999999998     48.061949999999996
C      46.674799999999991     46.379350000000002     47.129550000000009
C      48.916600000000003     48.115150000000000     46.770250000000004
C      47.334699999999998     46.311949999999996     45.933750000000003
C      48.414599999999993     47.287950000000002     45.852649999999997
H      47.516899999999993     49.223950000000002     50.993949999999998
H      46.066999999999993     47.016350000000003     49.981450000000009
H      47.947699999999998     46.697450000000003     50.206850000000003
H      48.129300000000001     50.523150000000001     48.854650000000007
H      45.985500000000002     45.476849999999999     47.478149999999999
H      50.014499999999998     48.370849999999997     46.939350000000005
H      46.926599999999993     45.692350000000005     45.110950000000003
H      49.201599999999999     47.160350000000001     45.006050000000002
