22

C      50.057799999999993     49.271399999999986     47.761439999999993
C      49.379700000000000     49.058700000000002     46.445639999999997
C      49.533700000000003     48.619600000000005     49.084750000000000
C      48.705500000000001     47.691800000000001     46.388819999999996
C      48.231900000000003     47.791200000000003     48.882539999999992
C      47.861400000000003     47.179199999999994     47.705199999999991
C      47.357900000000001     47.396299999999997     49.963780000000000
C      46.533200000000001     46.648300000000006     47.407439999999994
C      46.182800000000000     46.605599999999995     49.810699999999997
C      45.612600000000000     46.405900000000003     48.517470000000003
H      50.940899999999999     48.666100000000000     47.673379999999995
H      50.659900000000007     50.355999999999995     48.046819999999997
H      50.134799999999998     48.850600000000000     45.695439999999991
H      48.768100000000004     49.847900000000010     46.046099999999996
H      49.689300000000003     48.679299999999998     50.191599999999994
H      50.464300000000001     47.774699999999996     49.109969999999990
H      48.454799999999999     47.536100000000005     45.282470000000004
H      49.522300000000001     46.754099999999994     46.458150000000003
H      47.474800000000002     48.089299999999994     50.717529999999996
H      46.435600000000001     46.164000000000001     46.471999999999994
H      45.152200000000001     46.459000000000003     50.293620000000004
H      45.059100000000001     45.644000000000005     48.164279999999991
