26

C      50.644500000000001     50.729049999999994     48.470899999999986
C      49.907600000000002     50.257750000000001     47.430099999999996
C      47.178200000000004     48.334850000000003     48.018599999999992
C      49.876900000000006     48.814850000000000     46.657899999999998
C      48.577799999999996     47.620450000000005     48.329999999999998
C      49.902299999999997     47.938749999999999     47.889200000000002
C      48.493200000000002     46.219250000000002     48.392099999999999
C      51.066100000000006     47.275549999999996     48.466799999999992
C      49.485300000000009     45.259749999999997     48.791200000000003
C      50.828600000000009     45.837150000000001     48.730999999999995
C      44.820400000000006     48.053250000000006     48.166399999999996
C      45.971299999999999     47.931049999999999     48.890299999999996
H      51.471100000000007     50.117450000000005     48.984600000000000
H      50.374000000000009     51.726150000000004     48.949299999999994
H      49.284700000000001     50.893649999999994     46.760400000000004
H      49.141900000000007     48.739249999999998     45.933099999999996
H      46.925500000000000     48.289950000000005     46.996499999999997
H      47.071300000000008     49.333950000000002     48.545599999999993
H      50.817300000000003     48.484150000000000     46.031999999999996
H      47.400999999999996     46.070949999999996     48.648499999999999
H      52.099199999999996     47.859850000000002     48.429900000000004
H      49.273099999999999     44.273849999999996     49.183999999999997
H      51.874700000000004     45.268150000000006     48.608499999999992
H      44.726600000000005     48.307549999999999     47.033500000000004
H      43.900800000000004     47.917850000000001     48.653100000000009
H      45.932800000000000     47.533050000000003     50.066900000000004
