16

C      47.212299999999999     48.774499999999996     45.973949999999995
C      48.002800000000001     46.353300000000004     47.508550000000000
C      47.802900000000001     48.796300000000002     47.186250000000001
C      47.805200000000006     47.603500000000004     48.197350000000000
C      48.872400000000006     49.590600000000002     47.788150000000002
C      47.529299999999999     47.822000000000003     49.579350000000005
C      48.713100000000004     49.960500000000003     49.114549999999994
C      48.071800000000003     49.059699999999992     49.968350000000001
H      46.979800000000004     49.272899999999993     44.969549999999998
H      46.571999999999996     47.837400000000002     46.027550000000005
H      48.363800000000005     45.250399999999999     47.750349999999997
H      48.327400000000004     46.788400000000003     46.578249999999997
H      49.407800000000002     50.490300000000005     47.344850000000001
H      49.428000000000004     50.749600000000001     49.510750000000002
H      48.359000000000002     49.236500000000007     51.030450000000002
H      47.249400000000001     47.109500000000004     50.349450000000004
