18

C      47.303349999999988     46.217899999999993     46.781569999999988
C      48.100449999999995     49.227500000000006     45.757190000000001
C      47.683350000000004     47.381299999999996     47.705219999999990
C      47.801049999999996     48.678100000000001     47.165820000000004
C      48.217249999999993     46.798400000000001     48.957119999999996
C      48.201049999999995     49.598900000000000     48.224319999999999
C      48.572449999999989     47.760400000000004     49.839819999999996
C      48.365949999999998     49.114300000000000     49.540120000000009
H      49.167950000000005     49.169299999999993     45.427199999999999
H      47.850449999999995     50.335200000000000     45.625540000000001
H      46.988949999999996     45.302999999999997     47.449220000000004
H      48.319749999999999     45.813199999999995     46.361190000000001
H      47.430149999999998     48.906000000000006     45.103479999999998
H      46.832049999999995     46.601799999999997     45.808489999999999
H      47.912549999999996     45.906800000000004     49.424420000000005
H      47.826849999999993     50.697000000000003     48.015920000000001
H      48.799049999999994     47.453999999999994     50.896520000000002
H      48.694350000000000     49.950100000000006     50.353220000000000
