6

C      47.314599999999999     48.366249999999994     47.935549999999999
C      48.411500000000004     47.607650000000000     48.162750000000003
H      47.105400000000003     49.153950000000002     48.612150000000014
H      46.720600000000005     48.192050000000002     47.047250000000005
H      49.279399999999995     47.948450000000001     48.952749999999995
H      48.651399999999995     46.846049999999998     47.340350000000008
