6

C      48.070299999999989     47.690899999999992     48.378649999999993
C      48.069600000000001     48.658600000000000     47.601549999999996
H      47.692799999999998     46.509000000000000     48.511249999999997
H      48.929300000000005     47.244399999999999     48.931850000000004
H      48.732099999999996     49.491000000000000     47.589750000000002
H      47.070699999999995     48.798499999999997     47.068149999999996
