16

C      49.091149999999999     49.938099999999984     48.665199999999992
C      47.680450000000008     48.954999999999998     45.973700000000001
C      48.098950000000002     48.865299999999991     48.617699999999999
C      47.686149999999998     48.435699999999997     47.282299999999999
C      47.516949999999994     48.155999999999992     49.698300000000003
C      47.344650000000001     46.956899999999990     47.064499999999995
C      47.176950000000005     46.908900000000003     49.509500000000003
C      47.367649999999998     46.212199999999996     48.148299999999999
H      49.122249999999994     50.416699999999992     49.684500000000000
H      48.865150000000000     50.754199999999997     47.784199999999998
H      47.252150000000000     48.292500000000004     45.146900000000002
H      48.265150000000006     49.973100000000002     46.120199999999997
H      47.346149999999994     48.521599999999992     50.853099999999998
H      47.329149999999998     46.521299999999997     46.156800000000004
H      46.877750000000006     46.285600000000002     50.414800000000000
H      47.185249999999996     45.245800000000003     47.926699999999997
