6

C      47.246349999999993     47.613599999999998     47.815649999999991
C      48.404550000000008     48.082999999999998     48.289449999999995
H      47.158549999999998     46.625000000000000     47.568249999999999
H      46.513349999999996     48.196600000000004     47.568750000000001
H      48.507749999999994     49.375000000000000     48.431750000000001
H      49.486650000000004     47.869800000000012     48.286949999999997
