45

C      49.175399999999996     46.280349999999991     50.269849999999991
C      49.368099999999998     45.597650000000002     51.603050000000003
C      44.968699999999998     47.014150000000001     52.312149999999995
C      48.092399999999998     47.204450000000001     49.953350000000000
C      48.407200000000003     45.828449999999997     52.563949999999998
C      45.656499999999994     47.255949999999999     51.115249999999996
C      45.951599999999999     46.456649999999996     53.247049999999994
C      47.039000000000001     47.256250000000009     51.144250000000007
C      47.179600000000008     46.587649999999996     52.446350000000002
C      50.175100000000000     46.000250000000001     49.338349999999998
C      51.255899999999997     45.131250000000001     49.583050000000000
C      51.383299999999991     44.766750000000002     50.961049999999993
C      44.519999999999996     47.492350000000002     50.063549999999999
C      48.847099999999998     45.513750000000002     53.963150000000006
C      48.237200000000001     48.412250000000000     49.165150000000004
C      48.686999999999998     50.711749999999995     45.463850000000001
C      50.355999999999995     47.733149999999995     44.805450000000000
C      49.007400000000004     49.522750000000002     45.668749999999996
C      49.309100000000001     48.558949999999996     44.627850000000002
C      48.541499999999999     48.924250000000001     46.872450000000001
C      48.321799999999996     48.234249999999996     43.399250000000002
C      49.229699999999994     48.532150000000001     48.032450000000004
C      48.721199999999996     48.913349999999994     42.145949999999999
H      43.963999999999999     46.961749999999995     52.387549999999997
H      45.732500000000002     46.117649999999998     54.322949999999999
H      50.093899999999991     46.309950000000001     48.370550000000001
H      52.080399999999997     44.778749999999995     48.910850000000003
H      52.344099999999997     44.470649999999999     51.553149999999995
H      43.858599999999996     48.379149999999996     49.757849999999998
H      43.655900000000003     46.741949999999996     50.362150000000007
H      44.979799999999997     47.361249999999998     49.073850000000000
H      49.532899999999998     46.319249999999997     54.098949999999995
H      49.545900000000003     44.413449999999997     54.188849999999995
H      47.378299999999996     49.049949999999995     49.105150000000002
H      48.069599999999994     45.785249999999998     54.723250000000000
H      47.650800000000004     50.729249999999993     45.026850000000003
H      49.277799999999999     51.586550000000003     45.449149999999996
H      50.601600000000005     47.176249999999996     43.982650000000000
H      51.034099999999995     47.767849999999996     45.708750000000002
H      47.539100000000005     49.524949999999997     47.420250000000003
H      47.293499999999995     47.674450000000000     43.572949999999999
H      48.461900000000000     48.728749999999998     41.276750000000000
H      49.587699999999998     49.513850000000005     42.756149999999998
H      50.263399999999990     48.558849999999993     48.175850000000004
N      50.473100000000002     45.075849999999996     51.925449999999991
