36

C      45.814349999999997     48.963749999999990     47.530049999999996
C      48.441649999999996     48.341450000000002     49.530550000000005
C      45.944850000000002     49.392649999999996     48.704950000000011
C      46.870750000000001     48.671749999999996     49.403650000000013
C      44.969449999999995     50.056750000000001     49.411850000000001
C      46.494850000000000     48.587049999999998     50.713350000000005
C      44.915250000000000     50.177950000000003     50.804949999999991
C      45.764550000000000     49.435150000000000     51.555250000000001
C      49.371350000000007     47.407750000000000     49.040850000000006
C      51.476450000000000     47.972349999999999     47.743350000000007
C      47.563450000000003     46.006349999999991     46.664650000000002
C      50.084450000000004     47.810849999999995     47.701750000000004
C      47.913150000000002     47.528349999999996     46.217450000000007
C      49.199849999999998     48.146650000000001     46.534050000000008
C      47.182450000000003     48.259449999999994     45.185850000000002
C      49.664749999999998     49.280449999999995     45.755850000000002
C      47.569350000000000     49.494849999999992     44.481850000000001
C      48.892650000000003     49.921050000000001     44.762750000000004
H      46.734049999999996     48.673150000000000     46.985050000000001
H      44.795749999999998     48.997149999999998     47.239850000000004
H      48.672250000000005     48.480249999999991     50.557149999999993
H      48.773949999999999     49.352150000000002     49.055550000000011
H      44.046949999999995     49.764450000000004     49.068250000000006
H      51.953050000000005     47.738949999999996     48.565950000000001
H      44.129050000000007     50.749249999999996     51.402050000000017
H      45.187849999999997     49.356149999999992     52.515649999999994
H      50.195850000000007     47.282449999999990     49.790750000000003
H      49.315650000000005     46.417949999999998     49.054649999999995
H      51.924350000000004     47.848649999999999     46.754850000000005
H      47.247050000000002     45.933149999999991     47.732650000000007
H      46.424250000000001     45.840749999999993     46.153550000000003
H      48.424850000000006     45.250750000000004     46.256750000000004
H      46.294849999999997     47.756149999999998     44.859250000000003
H      50.384450000000001     49.784249999999993     46.452850000000005
H      46.985749999999996     49.665050000000001     43.484350000000006
H      49.374849999999995     50.732350000000004     44.260950000000001
