35

C      48.807149999999993     45.557549999999992     47.790249999999986
C      46.010950000000001     44.471349999999994     48.265150000000006
C      48.290349999999997     45.635749999999994     49.159350000000003
C      46.841149999999999     45.181950000000001     49.406250000000000
C      49.116050000000001     46.274449999999995     50.176150000000007
C      46.260050000000000     45.486349999999995     50.660550000000001
C      48.384650000000001     46.861150000000002     51.302650000000000
C      47.021749999999997     46.460249999999995     51.373850000000004
C      50.654350000000001     47.119650000000000     46.299650000000000
C      48.091149999999999     46.567950000000003     46.886949999999999
C      49.981449999999995     47.858950000000000     45.271050000000002
C      48.003450000000001     47.819150000000000     47.451849999999993
C      48.914049999999996     48.902149999999999     45.393550000000005
C      48.159050000000001     48.997149999999998     46.528049999999993
C      48.997449999999994     50.087349999999994     44.536450000000002
C      47.547649999999997     50.319449999999996     46.688549999999992
C      48.496150000000000     51.336350000000003     44.937049999999999
C      47.404449999999997     51.411549999999998     45.890349999999998
H      46.492149999999995     43.640549999999998     47.799849999999992
H      49.306849999999990     44.791350000000001     47.197950000000006
H      44.979349999999997     44.266349999999996     48.467249999999993
H      46.096350000000001     45.033849999999994     47.174350000000004
H      50.141449999999999     46.770350000000001     50.341250000000002
H      45.257549999999995     45.002549999999999     50.827150000000003
H      48.876250000000006     47.313250000000004     52.140950000000004
H      46.407950000000000     46.400249999999993     52.434749999999994
H      51.020650000000003     46.281550000000003     45.914349999999999
H      50.170750000000005     47.044649999999997     47.244050000000001
H      47.786649999999995     46.316449999999996     45.858949999999993
H      50.793049999999994     47.500549999999997     44.521450000000002
H      47.787549999999996     48.119049999999994     48.605450000000005
H      49.583649999999999     50.143350000000005     43.565250000000006
H      46.904849999999996     50.600850000000001     47.550749999999994
H      48.833950000000009     52.277250000000002     44.398550000000000
H      46.674949999999995     52.359450000000002     46.192149999999998
