28

C      48.919584999999998     45.044099999999993     46.959679999999992
C      49.565784999999991     45.893500000000003     46.033380000000001
C      47.480154999999996     45.877200000000002     47.136980000000001
C      48.891284999999996     47.210899999999995     45.478580000000001
C      47.716084999999993     47.232300000000009     47.740479999999998
C      48.485784999999993     48.036999999999999     46.741079999999990
C      47.446995000000001     48.132100000000001     48.775744999999993
C      49.312684999999988     49.113900000000001     47.088279999999990
C      48.081204999999997     49.386200000000002     48.912542000000009
C      49.328985000000003     49.759700000000009     48.361680000000000
C      45.989724999999993     50.838500000000010     49.994550000000011
C      47.548755000000000     50.426900000000003     49.938100000000013
H      49.274684999999991     45.056500000000000     48.207779999999993
H      48.740684999999999     43.981999999999999     46.778079999999996
H      50.619585000000001     46.039800000000000     46.490879999999997
H      49.825985000000003     45.349400000000003     45.135179999999998
H      46.760885000000002     46.049599999999998     46.307279999999999
H      46.876914999999997     45.167200000000008     47.961079999999988
H      47.966695000000001     46.921599999999998     45.094180000000001
H      49.651084999999995     47.993499999999997     44.964779999999998
H      46.712305000000001     47.935299999999998     49.662379999999999
H      50.250585000000001     49.222299999999997     46.687480000000001
H      49.862785000000002     50.644500000000008     48.518479999999990
H      45.536275000000003     50.885399999999997     48.928938000000009
H      45.850825000000000     52.018000000000001     50.519280000000002
H      48.272914999999998     51.323200000000000     49.805040000000012
H      45.380414999999999     50.555399999999999     50.840230000000005
H      47.773065000000003     50.114599999999996     51.035220000000002
