22

C      46.859349999999992     47.276349999999994     50.281099999999995
C      46.012949999999996     48.249150000000007     49.558300000000003
C      48.414350000000006     47.621650000000010     50.075400000000002
C      46.490549999999999     48.622850000000007     48.295400000000001
C      48.702750000000002     47.393050000000009     48.511099999999999
C      47.960050000000003     48.207950000000004     47.699700000000007
C      49.795449999999995     46.706850000000010     47.931300000000007
C      48.122450000000001     47.955750000000002     46.329400000000007
C      50.126849999999997     46.729750000000003     46.525400000000005
C      49.174250000000001     47.281350000000010     45.628500000000003
H      46.754950000000001     46.252749999999999     49.831699999999998
H      46.671349999999997     47.365150000000007     51.516999999999996
H      44.940149999999996     48.048949999999998     49.791200000000003
H      45.752649999999996     49.104150000000011     50.305199999999999
H      49.052050000000001     46.806550000000009     50.451400000000007
H      48.706049999999998     48.713150000000006     50.234099999999998
H      46.366650000000000     49.747250000000001     48.111800000000002
H      46.051150000000000     47.832950000000004     47.709900000000005
H      50.724250000000005     46.513150000000003     48.618899999999996
H      47.256049999999995     48.009050000000009     45.557800000000000
H      51.059850000000004     46.412050000000001     46.147199999999998
H      49.346550000000001     47.654650000000011     44.483000000000004
