18

C      49.959999999999994     47.840149999999987     46.713999999999999
C      49.729799999999997     49.456149999999994     48.786299999999997
C      48.631699999999995     47.697949999999992     47.661500000000004
C      48.404200000000003     48.917249999999996     48.369500000000002
C      47.644300000000001     46.681349999999995     47.919499999999999
C      47.193500000000000     49.154449999999997     48.996099999999998
C      46.390500000000003     46.806049999999999     48.591099999999997
C      46.114199999999997     48.206850000000003     48.770299999999992
H      50.080799999999996     48.936350000000004     46.223100000000002
H      50.847099999999998     47.754750000000001     47.430599999999998
H      49.391400000000004     50.520949999999999     48.842100000000002
H      50.318599999999989     49.529150000000001     47.908499999999989
H      47.687299999999993     45.479050000000001     47.568299999999994
H      47.203400000000002     49.392650000000003     50.061999999999998
H      45.650899999999993     46.064949999999996     48.611099999999993
H      45.152900000000002     48.321950000000001     49.263799999999989
H      50.139299999999992     48.734049999999996     49.818199999999990
H      49.691599999999994     46.974549999999994     45.938000000000002
