22

C      50.376349999999995     49.382126499999991     47.523699999999991
C      50.683750000000003     47.962356499999999     47.345199999999998
C      49.130049999999997     49.004036499999998     49.128399999999999
C      49.427549999999997     46.978006499999999     47.099699999999999
C      47.848550000000003     48.894556500000000     48.347699999999996
C      48.173450000000003     47.582076499999999     47.575299999999991
C      46.606050000000003     49.318896500000001     48.926899999999996
C      46.919150000000002     47.209336499999999     47.042800000000000
C      45.586650000000006     48.682186500000000     48.338000000000001
C      45.613750000000003     47.814016500000001     47.188299999999998
H      49.838650000000001     49.867676500000002     46.875899999999994
H      51.211050000000000     49.998196499999999     48.060099999999998
H      51.326149999999998     48.042216500000002     46.420800000000000
H      51.017850000000003     47.715046500000000     48.343600000000002
H      49.421050000000001     48.051396500000003     49.819099999999999
H      48.657250000000005     49.421576500000000     50.070100000000004
H      49.256250000000001     46.001803500000001     46.990699999999997
H      49.664550000000006     46.890896500000004     45.929899999999996
H      46.547550000000001     49.747026500000004     49.929899999999996
H      47.015749999999997     46.480856500000002     46.144599999999997
H      44.839950000000002     48.998796499999997     48.960400000000000
H      44.673850000000002     47.414136499999998     46.964300000000001
