16

C      48.873949999999994     49.316309999999994     49.193399999999997
C      46.242170000000002     49.383910000000000     47.672799999999995
C      48.422080000000008     48.684410000000000     47.944000000000003
C      47.063350000000000     48.552109999999999     47.310800000000000
C      49.476780000000005     47.864710000000002     47.447000000000003
C      46.693880000000007     47.468649999999997     46.569500000000005
C      49.172539999999998     46.813180000000003     46.736800000000002
C      47.768010000000004     46.664529999999999     46.206900000000005
H      49.803590000000000     49.835709999999999     49.224399999999989
H      49.018370000000004     48.776809999999998     50.155299999999997
H      45.652159999999995     49.425210000000007     48.748699999999999
H      46.856430000000003     50.452410000000000     47.692400000000006
H      50.470240000000004     48.171109999999999     47.972300000000004
H      45.529759999999996     46.971090000000004     46.855400000000003
H      49.916990000000013     46.060050000000004     46.439000000000007
H      47.549210000000002     45.547590000000000     45.844700000000003
