17

C      46.185899999999990     48.915849999999999     47.081049999999998
C      49.303599999999996     49.479249999999993     46.425950000000007
C      47.592099999999995     48.403750000000002     47.295350000000013
C      48.695299999999996     49.232050000000001     47.467450000000014
C      47.779000000000003     47.005549999999999     47.654250000000005
C      49.045600000000000     49.241150000000005     48.780650000000001
C      48.399200000000000     46.924250000000001     48.897350000000003
C      48.874599999999994     47.985950000000003     49.511250000000004
H      48.485300000000002     45.946050000000000     49.448250000000002
H      49.369199999999999     47.993650000000002     50.535849999999996
H      45.628999999999998     48.339550000000003     46.236050000000006
H      45.650399999999998     48.818550000000002     48.166850000000004
H      48.811100000000003     48.971649999999997     45.464150000000004
H      46.176799999999993     50.043949999999995     46.926850000000002
H      47.648199999999996     46.090050000000005     46.924550000000004
H      49.742299999999993     50.053950000000000     49.213950000000011
H      50.371000000000002     49.287750000000003     46.386850000000003
