41

C      48.475049999999996     47.473599999999990     48.731499999999997
C      49.938549999999999     47.492699999999992     48.914400000000001
C      49.342949999999995     50.865699999999997     45.589800000000004
C      47.555950000000003     48.522399999999998     47.989500000000000
C      50.530350000000006     48.423199999999987     47.928300000000000
C      48.170150000000000     50.117399999999996     45.813899999999997
C      50.386050000000004     50.282999999999994     46.411900000000003
C      48.267649999999996     49.168999999999990     47.009200000000000
C      49.850450000000002     49.197299999999991     47.043399999999998
C      47.793050000000001     46.743699999999997     49.663600000000010
C      48.453449999999997     45.803499999999993     50.472999999999992
C      50.438849999999995     46.758099999999992     49.925999999999995
C      46.352449999999997     46.771200000000000     49.798999999999999
C      45.851350000000004     45.471599999999988     50.428000000000004
C      47.905149999999999     44.777499999999996     51.282600000000002
C      46.120650000000005     48.718799999999995     48.208800000000004
C      45.562649999999998     47.664699999999989     49.080899999999993
C      51.994050000000009     47.133299999999998     49.859800000000000
C      47.059149999999995     50.326400000000000     44.915300000000002
C      44.088850000000001     47.436899999999987     48.973399999999998
C      51.864950000000000     50.760699999999993     46.277200000000001
C      45.504250000000006     50.032999999999994     47.732100000000003
H      49.233550000000001     51.996800000000000     45.103200000000001
H      51.519250000000007     48.734199999999994     47.972300000000004
H      44.972450000000002     44.769599999999990     50.320599999999999
H      52.579950000000004     47.257599999999989     48.997300000000003
H      46.092050000000008     49.617799999999995     44.873800000000003
H      43.921550000000003     46.361599999999989     48.826300000000010
H      43.505650000000003     46.665499999999987     50.026800000000001
H      43.311850000000000     48.131299999999989     48.407800000000002
H      52.688150000000000     50.143299999999989     46.542200000000001
H      52.130450000000003     50.748199999999990     44.996699999999997
H      45.497650000000000     49.953699999999991     46.620700000000006
H      46.360850000000006     50.671499999999988     48.133000000000003
H      44.475349999999999     50.078299999999992     48.083300000000001
H      52.109950000000005     51.731299999999997     46.401900000000005
N      49.797550000000008     45.892899999999990     50.602600000000002
N      46.516449999999999     44.509899999999995     51.123500000000000
O      52.368450000000003     47.182499999999997     50.978300000000004
O      47.021650000000001     51.090599999999988     43.942399999999999
O      48.441350000000007     44.003200000000000     52.057600000000001
