23

C      47.252699999999997     45.668999999999997     46.227849999999989
C      46.187800000000003     46.621400000000001     46.673749999999991
C      48.547399999999996     46.079600000000006     46.037149999999997
C      46.131300000000003     47.956800000000008     46.032249999999998
C      48.572999999999993     47.449400000000004     45.932049999999997
C      47.376300000000001     48.477700000000006     45.857249999999993
C      49.767000000000010     48.190199999999997     46.098149999999997
C      47.413699999999999     49.945600000000006     45.905949999999997
C      49.812500000000000     49.560300000000005     46.168749999999996
C      48.584599999999995     50.350200000000008     46.210049999999995
C      46.287100000000002     48.459600000000002     49.321149999999996
H      45.314399999999999     49.117700000000006     49.435350000000000
H      49.291900000000012     45.198299999999996     46.045049999999996
H      45.170200000000001     46.059000000000005     46.758649999999996
H      47.023299999999999     44.576900000000002     46.452749999999988
H      45.250900000000001     48.553500000000007     46.027849999999994
H      50.784599999999998     50.016600000000004     45.710249999999995
H      46.381700000000002     50.500200000000000     45.829049999999995
H      50.829799999999999     47.603800000000000     45.799749999999996
H      48.602300000000014     51.423099999999998     46.301549999999999
H      46.451100000000004     48.400200000000005     50.289750000000005
H      47.087000000000003     49.093399999999995     48.788450000000005
S      46.261200000000002     46.769799999999996     48.790149999999990
