15

C      45.938549999999992     47.509549999999990     48.168974999999989
C      48.118949999999998     48.558050000000001     47.575855000000004
C      47.132649999999998     48.171450000000000     48.709185000000005
C      50.510649999999984     47.655750000000005     48.278145000000009
C      49.330249999999992     47.504849999999998     47.797255000000007
H      46.314849999999993     46.332349999999998     48.381825000000006
H      44.949550000000002     47.723949999999995     48.721145000000007
H      45.319549999999992     47.925649999999997     47.375285000000005
H      48.392949999999985     49.667650000000002     47.524325000000005
H      47.680149999999998     48.317749999999997     46.505814999999998
H      47.389650000000003     47.482849999999992     49.494185000000002
H      47.043149999999997     49.009650000000001     49.357385000000008
H      50.474849999999989     48.658350000000006     48.815705000000008
H      51.050449999999998     46.652049999999996     48.341905000000011
H      49.299549999999996     46.488549999999996     47.586375000000004
