57

C      49.155349999999991     45.394399999999990     49.247399999999985
C      48.436549999999997     46.003799999999998     43.586200000000005
C      49.100650000000002     46.515999999999998     48.163600000000002
C      47.723250000000007     46.147500000000001     44.641499999999994
C      47.967550000000003     46.787700000000008     47.189700000000002
C      47.987250000000003     45.740000000000002     46.155799999999999
C      46.902550000000005     47.761800000000001     47.343900000000005
C      48.600650000000002     44.390700000000002     46.175100000000000
C      46.285250000000005     48.079799999999999     48.545800000000000
C      49.349150000000009     43.742899999999999     45.074799999999996
C      46.398250000000004     47.075699999999991     49.716099999999997
C      47.901150000000001     52.592899999999993     48.293999999999997
C      45.282750000000007     49.084899999999998     49.037899999999993
C      47.400149999999996     51.369800000000005     48.831099999999992
C      45.636949999999999     50.234899999999989     50.082200000000000
C      46.675350000000009     51.224199999999996     50.191299999999998
C      45.093649999999997     49.590600000000002     51.132999999999996
C      46.354750000000010     52.119900000000008     51.281700000000001
C      45.311149999999998     50.114599999999996     52.515600000000006
C      45.850650000000002     51.453400000000009     52.484099999999998
C      46.779550000000000     48.878700000000002     46.226100000000002
C      48.176450000000003     49.007299999999994     45.580600000000004
C      48.439650000000000     48.544600000000010     44.237399999999994
C      49.116550000000004     49.441000000000010     46.581999999999994
C      49.703350000000000     48.019999999999996     44.299099999999996
C      50.497349999999997     48.942999999999991     46.427700000000002
C      50.744650000000007     48.303899999999999     45.286199999999994
H      48.209649999999996     45.041899999999998     48.956699999999998
H      49.128250000000008     45.645400000000002     50.335599999999999
H      47.971450000000004     46.040799999999997     42.650000000000006
H      49.468850000000003     45.812099999999994     43.329399999999993
H      49.735349999999997     44.435499999999998     49.133200000000002
H      49.457250000000002     47.440000000000005     48.418599999999998
H      46.620950000000008     46.684599999999996     44.239900000000006
H      50.117150000000009     46.460000000000001     47.793800000000005
H      48.429950000000005     43.658000000000001     46.994500000000002
H      49.759749999999997     42.698799999999999     45.350399999999993
H      49.890250000000009     44.145099999999999     44.151100000000000
H      46.194050000000004     49.902699999999996     46.443299999999994
H      46.309650000000005     46.035299999999999     49.207300000000004
H      45.339650000000006     46.942000000000000     50.116600000000005
H      47.409149999999997     46.642800000000001     49.857600000000005
H      48.214650000000006     53.301200000000001     49.143900000000002
H      44.355249999999998     48.464199999999998     49.347999999999999
H      48.033850000000001     52.710999999999991     47.270600000000002
H      47.240549999999999     50.679099999999998     47.945999999999998
H      44.566950000000006     48.728699999999996     51.512900000000002
H      46.813350000000000     53.246699999999997     51.301000000000002
H      45.083849999999998     49.562800000000003     53.349999999999994
H      45.380049999999997     52.044800000000002     53.091399999999993
H      44.786950000000004     49.722299999999997     48.057199999999995
H      46.158550000000005     48.417699999999989     45.260700000000000
H      47.917950000000005     48.703899999999997     43.401499999999999
H      48.859850000000009     49.609200000000008     47.645499999999998
H      50.222750000000005     47.380699999999997     43.483900000000006
H      51.214250000000007     49.329100000000004     47.054500000000004
H      51.644750000000002     47.781300000000002     45.158000000000001
