6

C      48.006699999999995     47.458349999999989     48.653099999999988
C      48.037000000000006     48.224549999999994     47.569000000000003
H      48.733699999999999     46.806950000000001     48.858899999999991
H      47.353999999999999     47.955950000000001     49.330500000000001
H      47.266300000000001     49.193049999999999     47.280199999999994
H      48.608400000000003     48.400049999999993     46.669499999999999
