5

C      47.841999999999992     48.084699999999998     48.108949999999986
H      48.739400000000003     48.352200000000003     48.800550000000001
H      47.260599999999997     49.019799999999996     48.479149999999990
H      47.370300000000000     46.980200000000004     48.245249999999999
H      48.222300000000004     48.255900000000004     47.199449999999999
