18

C      49.733649999999983     49.269849999999991     48.547150000000002
C      48.104549999999996     49.150150000000004     46.145050000000005
C      48.336949999999995     48.477049999999998     48.436749999999996
C      47.651149999999994     48.229450000000000     47.274750000000004
C      47.820949999999989     47.780349999999999     49.662849999999999
C      46.673650000000002     47.216650000000001     47.156050000000000
C      46.617950000000000     46.913550000000001     49.776150000000008
C      46.157049999999991     46.834949999999999     48.425750000000001
H      50.670549999999999     48.619149999999998     48.633249999999997
H      48.645249999999997     50.029850000000003     46.300950000000007
H      49.806633000000005     49.891250000000007     47.556149999999995
H      49.823974000000000     49.749850000000002     49.623849999999997
H      47.162849999999999     49.096449999999997     45.608250000000005
H      48.773149999999994     48.654350000000001     45.475050000000003
H      48.426749999999991     47.372949999999996     50.524949999999997
H      46.624049999999990     46.990549999999999     46.045049999999996
H      46.432349999999992     46.055650000000000     50.506450000000008
H      45.329450000000001     45.970149999999997     48.408450000000009
