6

C      48.165949999999995     47.260649999999998     47.724079999999994
C      47.760350000000003     48.357050000000008     48.292130000000000
H      47.264749999999999     46.791450000000005     47.172820000000002
H      49.171349999999997     46.797950000000007     47.894520000000000
H      46.828650000000003     48.943050000000007     47.754780000000011
H      48.322250000000004     49.208549999999995     48.827179999999998
