8

C      48.170199999999994     47.647749999999988     48.464950000000002
C      47.537499999999994     48.606049999999989     47.355049999999999
H      47.673199999999994     47.632249999999992     49.400449999999999
H      48.488999999999990     46.724150000000002     48.242250000000006
H      49.102000000000004     48.131650000000000     48.793250000000008
H      48.398700000000005     49.033650000000002     46.793750000000010
H      47.145200000000003     49.275849999999998     47.993050000000004
H      46.897999999999996     48.198450000000001     46.599550000000001
