47

C      48.172644999999996     47.617199999999997     47.978349999999992
C      49.527235000000005     48.103200000000001     47.495050000000006
C      48.861035000000001     44.993300000000005     44.162949999999995
C      47.384455000000003     46.917500000000004     47.040949999999995
C      50.249115000000003     47.447699999999998     46.526949999999999
C      47.811805000000000     45.546099999999996     44.976749999999996
C      49.978845000000000     45.831699999999998     44.413950000000000
C      48.246785000000003     46.278300000000002     46.118049999999997
C      49.727955000000001     46.377899999999997     45.685149999999993
C      47.571944999999999     47.975300000000004     49.147750000000002
C      48.212594999999993     48.945700000000002     49.973249999999993
C      49.440474999999999     49.713800000000006     49.242149999999995
C      50.219605000000001     49.186799999999991     48.126750000000001
C      46.136614999999999     47.630499999999998     49.412350000000004
C      45.752434999999998     48.120899999999992     50.715050000000005
C      46.545225000000002     48.898600000000002     51.487150000000000
C      47.842615000000002     49.248300000000000     51.287049999999994
C      45.375805000000000     46.689800000000005     48.519950000000009
C      46.050924999999999     46.404600000000002     47.261349999999993
C      49.916075000000006     50.743000000000009     49.724949999999993
C      50.342664999999997     51.820599999999999     49.840350000000001
C      52.171534999999999     49.754199999999997     48.972650000000002
C      51.532235000000000     49.995599999999996     47.943650000000005
C      45.473775000000003     45.704700000000003     46.001750000000001
C      46.290174999999998     45.522300000000001     44.659949999999995
C      45.059494999999998     44.244799999999998     46.544049999999999
C      51.818235000000001     50.910700000000006     47.167450000000002
C      44.123645000000003     46.480000000000004     45.639250000000004
H      48.660965000000004     44.312799999999996     43.222549999999998
H      50.772634999999994     46.090199999999996     43.571250000000006
H      44.996855000000004     47.666800000000009     51.394649999999999
H      46.227915000000003     49.439500000000010     52.777450000000002
H      48.567835000000002     49.761899999999997     51.991550000000004
H      44.134235000000004     46.450500000000005     48.256150000000005
H      50.860735000000005     52.765100000000004     49.821550000000002
H      51.790334999999999     50.351900000000001     49.994749999999996
H      52.549835000000002     51.791399999999996     47.413250000000005
H      51.049235000000003     47.978000000000009     45.913449999999997
H      46.517225000000003     46.605699999999999     44.166749999999993
H      46.105225000000004     44.738399999999999     43.876050000000006
H      45.453515000000003     43.234899999999996     46.123450000000005
H      51.229834999999994     51.238300000000010     46.304850000000002
H      44.312915000000004     47.476399999999998     45.230450000000005
H      43.598534999999998     46.142700000000005     44.679550000000006
H      43.450164999999998     46.594800000000006     46.334850000000003
H      52.520935000000001     48.715400000000002     48.922749999999994
O      44.167745000000004     44.231499999999997     47.338650000000001
