24

C      49.126999999999995     46.857349999999997     49.341001999999989
C      49.419099999999993     45.624350000000007     50.218334999999996
C      47.609400000000001     47.534449999999993     49.116280000000003
C      46.577700000000000     47.152249999999995     46.404355000000010
C      48.005400000000002     48.518049999999988     48.009155000000021
C      47.769900000000000     48.020550000000000     46.722354999999993
C      48.590600000000002     49.858550000000008     47.913054999999986
C      48.735700000000001     48.615649999999988     45.828055000000006
C      49.575700000000005     50.351650000000006     46.916955000000002
C      49.886400000000002     49.467650000000006     45.792955000000006
H      46.904099999999993     46.123850000000004     46.002954999999986
H      49.215100000000000     44.567750000000004     49.662904999999995
H      49.775699999999993     47.488450000000000     49.716615000000004
H      49.672400000000003     46.583749999999995     48.361355000000003
H      50.341400000000000     45.250450000000001     50.776884999999993
H      48.714199999999998     45.980350000000001     51.018945000000002
H      46.975100000000005     47.825849999999988     49.983395000000002
H      47.218200000000003     46.758650000000003     48.562355000000011
H      45.658600000000000     47.455550000000002     47.161355000000015
H      46.174199999999992     47.839849999999998     45.482555000000005
H      49.084600000000002     50.344949999999997     48.809194000000005
H      48.642999999999994     47.861949999999993     44.981054999999998
H      49.674699999999994     51.432249999999996     47.087755000000016
H      50.092899999999993     49.998549999999994     45.003354999999999
