6

C      48.109249999999989     48.125349999999997     48.484449999999988
C      47.951249999999995     47.831850000000003     47.123849999999990
H      49.020649999999996     48.600850000000001     49.151550000000000
H      46.979350000000004     47.399149999999999     46.854849999999999
H      48.989849999999997     48.029350000000001     46.686549999999997
H      47.470649999999999     47.689350000000005     49.313450000000003
