20

C      46.500449999999994     48.544950000000000     50.351099999999995
C      46.757950000000001     47.187350000000009     50.786600000000007
C      47.632850000000005     49.221750000000000     49.811400000000006
C      47.711749999999995     46.180149999999998     50.404200000000003
C      48.385649999999998     48.963549999999998     48.533100000000005
C      49.025649999999999     50.073050000000009     47.903100000000002
C      47.921149999999997     47.905850000000001     47.713600000000000
C      49.604749999999996     50.053550000000001     46.560900000000004
C      48.336250000000000     47.957549999999998     46.344000000000001
C      49.287350000000004     48.874450000000010     45.795500000000004
H      46.012250000000002     49.184749999999994     50.886800000000008
H      45.807050000000004     46.541750000000008     51.115499999999997
H      49.378450000000001     50.805750000000003     48.545600000000007
H      47.764650000000003     50.173250000000010     50.279300000000006
H      47.680150000000005     45.078950000000006     50.528300000000002
H      48.771950000000004     46.437550000000002     50.155799999999999
H      47.239249999999998     47.028149999999997     48.057100000000005
H      50.192949999999996     50.921049999999994     46.173200000000001
H      48.119550000000004     47.288449999999997     45.582999999999998
H      49.628250000000001     48.593750000000000     44.884500000000003
