5

C      48.088699999999989     47.803099999999986     47.795899999999996
H      47.012699999999995     47.410200000000003     47.351400000000005
H      48.987300000000005     47.756699999999995     47.247399999999999
H      48.380099999999999     47.168499999999995     48.752600000000001
H      48.039199999999994     48.831500000000005     48.357500000000002
