15

C      46.571832999999984     46.103049999999996     47.853199999999987
C      48.558678999999998     47.494350000000004     47.456599999999995
C      47.278319000000010     47.423650000000002     47.968000000000004
C      49.248718999999994     48.756750000000004     47.535799999999995
C      46.539014999999992     48.555749999999996     48.545300000000012
C      48.674088999999995     49.716450000000002     48.382700000000000
C      47.309929000000011     49.774750000000004     48.625100000000003
H      48.890219000000002     46.556549999999994     47.074299999999994
H      45.979535999999996     46.218150000000001     46.784099999999995
H      45.829200999999998     46.031050000000000     48.545000000000002
H      50.170799000000002     48.797049999999992     47.110699999999994
H      45.879125000000002     48.030449999999995     49.215900000000005
H      49.275498999999996     50.671749999999996     48.391499999999994
H      47.004169000000005     50.595250000000000     49.203800000000001
H      47.392558999999991     45.328250000000004     47.864600000000010
