18

C      45.682849999999988     47.650349999999989     47.194099999999992
C      46.719650000000001     49.180650000000000     49.419600000000017
C      47.163749999999993     47.469949999999997     47.432400000000001
C      47.617249999999999     48.267750000000007     48.572800000000001
C      48.045450000000002     46.590850000000003     46.725300000000004
C      49.011550000000000     48.132549999999995     48.862500000000011
C      49.383449999999996     46.570650000000001     47.086900000000000
C      49.894049999999993     47.334950000000006     48.102600000000010
H      45.214150000000004     47.568349999999995     48.206400000000002
H      45.101749999999996     46.835549999999998     46.147800000000004
H      47.397850000000005     50.005350000000007     49.669900000000013
H      45.855249999999998     49.888550000000009     49.451400000000007
H      47.718950000000007     46.143550000000005     45.660600000000002
H      49.440350000000009     48.497249999999994     49.935100000000006
H      50.045550000000006     45.994649999999993     46.558000000000007
H      50.898250000000004     47.077449999999999     48.382800000000003
H      46.429149999999993     48.676749999999998     50.339399999999998
H      45.348550000000003     48.954950000000011     46.895899999999997
