6

C      48.077399999999990     47.869799999999991     48.637399999999992
C      47.593699999999998     48.008399999999995     47.497799999999998
H      48.832700000000003     46.932299999999998     48.972400000000007
H      48.148899999999998     48.491699999999994     49.554900000000004
H      47.972200000000001     47.363500000000002     46.445099999999996
H      47.167299999999997     49.067700000000002     47.492300000000000
