16

C      48.623239999999996     49.862649999999988     48.136644999999994
C      49.090119999999999     47.392249999999997     50.126345000000001
C      48.585999999999999     48.438949999999998     47.787705000000003
C      48.462469999999996     47.472649999999994     49.035544999999999
C      47.841470000000001     48.135050000000000     46.572975000000000
C      47.301349999999999     46.699449999999992     48.585945000000009
C      47.019689999999997     47.086250000000000     46.266435000000001
C      46.703230000000005     46.378650000000000     47.334755000000001
H      48.875679999999988     50.231549999999991     49.135145000000001
H      49.153269999999992     50.471550000000001     47.322765000000004
H      49.140519999999995     46.544849999999997     50.785645000000002
H      49.868340000000003     48.068149999999996     50.330645000000004
H      48.102630000000005     48.431949999999993     45.481075000000004
H      46.842640000000003     45.978749999999998     49.330044999999998
H      46.712170000000000     46.888050000000000     45.214354999999998
H      46.131659999999997     45.528449999999999     47.334755000000001
