71

C      46.580099999999995     44.589219999999997     49.575479999999985
C      45.356800000000000     44.326210000000003     49.334189999999992
C      44.063600000000001     44.024519999999995     49.244979999999998
C      49.373599999999996     47.764489999999995     48.905760000000001
C      48.906199999999998     48.667580000000001     45.762580000000000
C      48.085999999999999     48.000309999999999     48.152130000000000
C      47.875399999999999     48.354360000000000     46.769529999999989
C      46.838899999999995     47.960589999999996     48.910820000000001
C      46.536999999999999     48.668229999999994     46.294460000000001
C      45.688899999999997     48.633759999999995     48.502889999999994
C      45.389899999999997     48.875399999999999     47.197629999999990
C      49.033400000000000     46.786590000000004     50.171369999999996
C      47.554200000000002     43.826599999999999     50.558270000000007
C      49.719299999999997     45.351949999999988     50.333269999999999
C      49.081699999999998     44.092630000000000     50.489769999999993
C      50.905100000000004     45.312219999999996     49.446879999999993
C      49.744299999999996     42.882459999999995     50.357969999999995
C      51.530099999999997     44.092320000000001     49.282409999999999
C      51.041599999999988     42.844790000000003     49.829669999999993
C      50.720799999999997     49.151190000000000     43.494230000000002
C      49.680299999999988     50.056139999999999     46.381919999999994
C      49.977599999999995     50.488339999999994     43.853629999999995
C      49.584199999999996     50.916240000000002     45.174399999999991
C      49.743499999999997     51.278539999999992     42.671779999999998
C      49.073900000000009     52.244240000000005     45.128760000000000
C      49.327700000000000     52.604240000000004     42.738140000000001
C      48.910199999999996     52.981740000000002     43.986319999999992
C      47.264300000000006     43.903719999999993     52.087069999999997
C      50.051899999999996     44.217169999999996     53.230670000000003
C      47.757999999999996     45.104689999999991     52.738069999999993
C      49.118099999999998     45.414990000000003     53.136569999999992
C      46.694599999999994     45.850899999999996     53.415869999999998
C      49.472600000000000     46.724279999999993     53.549369999999996
C      46.951299999999989     47.224879999999999     53.505169999999993
C      48.307800000000000     47.715819999999994     53.775970000000001
H      50.659700000000001     44.104089999999999     52.355869999999996
H      47.363200000000006     44.886939999999996     48.952119999999994
H      43.524000000000001     43.813630000000003     50.180269999999993
H      43.524400000000000     44.124369999999999     48.301149999999993
H      49.678199999999997     48.973450000000000     49.176969999999997
H      50.029799999999994     47.280220000000000     48.199060000000003
H      49.690399999999997     47.958420000000004     45.621690000000001
H      48.296399999999998     48.842789999999994     44.887490000000000
H      46.920899999999996     47.746600000000001     50.034070000000000
H      46.494900000000001     49.647769999999994     45.705359999999999
H      44.777299999999997     48.390989999999988     49.041259999999994
H      44.407100000000000     49.304860000000005     46.747540000000001
H      51.160600000000002     49.044039999999995     44.477130000000002
H      49.695999999999998     47.171170000000004     51.029370000000000
H      48.001599999999996     46.710729999999998     50.412469999999999
H      47.424700000000001     42.705250000000007     50.363770000000002
H      51.116299999999995     46.390979999999999     48.803420000000003
H      49.409799999999997     41.889960000000002     50.731169999999992
H      52.475999999999999     43.689220000000006     48.508550000000000
H      51.500599999999999     41.981059999999999     49.665099999999995
H      47.584199999999996     42.925899999999999     52.392070000000004
H      51.469399999999993     49.144889999999990     42.689899999999994
H      49.812200000000004     48.708690000000004     43.203139999999991
H      48.963600000000000     50.622140000000002     47.122519999999994
H      50.892400000000009     49.977739999999997     46.655829999999995
H      50.135399999999997     50.729839999999996     41.764929999999993
H      48.636800000000001     52.830140000000000     45.836329999999990
H      48.933099999999996     53.159840000000003     41.891039999999990
H      48.723100000000002     54.110039999999998     44.331959999999995
H      46.132399999999997     44.029169999999993     52.058369999999996
H      49.599599999999995     43.334090000000003     53.657870000000003
H      50.854099999999988     44.843129999999988     54.008369999999999
H      45.744500000000002     45.315110000000004     53.515369999999990
H      50.349299999999999     46.879679999999993     54.235070000000007
H      48.299300000000002     48.775819999999996     54.157269999999997
H      45.948200000000000     47.729639999999989     53.849469999999997
