22

C      46.811399999999992     46.427449999999993     50.446099999999987
C      46.870000000000005     47.714349999999996     50.208499999999994
C      48.251100000000008     48.536249999999995     50.198199999999993
C      46.372200000000007     47.190849999999998     47.861499999999999
C      48.452900000000000     48.671949999999995     48.722699999999996
C      47.716400000000007     47.970249999999993     47.615199999999994
C      49.438800000000015     49.553749999999994     48.558900000000001
C      48.115600000000001     48.435149999999993     46.364299999999993
C      49.931900000000013     49.582250000000002     47.207599999999992
C      49.412400000000005     48.945949999999996     46.002400000000002
H      47.801300000000012     45.731250000000003     50.686599999999991
H      45.889600000000002     48.162649999999999     50.234099999999991
H      45.961500000000001     45.856849999999994     50.524899999999995
H      45.240600000000001     47.592050000000000     48.018700000000003
H      49.047899999999998     48.034049999999993     50.929600000000001
H      45.958100000000002     46.687950000000001     46.922499999999992
H      46.733000000000004     46.336650000000006     48.574199999999998
H      49.934300000000007     49.773349999999994     49.464899999999993
H      47.872200000000007     47.880449999999996     45.442000000000000
H      50.759399999999999     50.268749999999997     47.025799999999997
H      49.912400000000005     48.609649999999988     45.070399999999999
H      48.117400000000004     49.671549999999996     50.244899999999994
