6

C      47.723299999999995     48.369599999999991     48.747349999999997
C      48.389099999999999     47.795800000000000     47.609950000000005
H      46.923400000000001     47.720599999999997     49.267350000000000
H      47.246700000000004     49.193400000000004     48.870849999999997
H      48.492199999999997     48.326299999999996     46.732650000000000
H      49.076599999999999     46.806599999999996     47.703949999999999
