57

C      53.212399999999988     44.993349999999992     49.731598999999996
C      52.652700000000003     45.008459999999992     48.414399000000003
C      45.782100000000000     49.025990000000000     46.177199000000002
C      52.267599999999995     45.321689999999997     50.651499000000001
C      45.022999999999996     49.249189999999999     47.392099000000002
C      46.669599999999996     48.028290000000005     45.775599000000000
C      51.405799999999992     44.560040000000001     48.126699000000002
C      45.298099999999998     48.687390000000001     49.953898999999993
C      45.725800000000000     47.659690000000005     50.972498999999999
C      47.735599999999998     46.002990000000004     51.279099000000002
C      48.034500000000001     46.163890000000002     46.903498999999996
C      45.229299999999995     48.347490000000001     48.569799000000003
C      50.852899999999998     45.246789999999997     50.529099000000002
C      46.929699999999997     47.214990000000000     46.821598999999992
C      46.883199999999995     46.879289999999990     50.497799000000001
C      48.950099999999999     45.628489999999992     50.786598999999995
C      50.351599999999998     44.837229999999998     49.160298999999995
C      48.190400000000004     45.959789999999991     48.408598999999995
C      46.277499999999996     47.433889999999998     48.084898999999993
C      49.050800000000002     45.351390000000002     49.291899000000001
C      47.093299999999992     46.822889999999994     49.113799000000000
C      43.808599999999998     50.226089999999992     47.344398999999996
C      43.588699999999996     51.258890000000001     46.444699000000000
C      44.641399999999997     50.050289999999997     50.477699000000001
C      44.773199999999996     47.193089999999998     52.013398999999993
C      44.920099999999998     45.847789999999996     52.047298999999995
C      48.339199999999998     49.358290000000004     44.168699000000004
C      47.605200000000004     48.025390000000002     44.552798999999993
C      42.768899999999995     49.222189999999998     47.970998999999992
C      52.978500000000004     45.060989999999997     52.016299000000004
H      45.055999999999997     51.034790000000008     50.343898999999993
H      44.156999999999996     47.917989999999996     52.687095000000006
H      43.760399999999997     50.499190000000006     49.807399000000004
H      49.477699999999992     49.293089999999999     44.690998999999991
H      47.687899999999992     50.124689999999994     44.694598999999997
H      48.602699999999992     47.149189999999997     44.829798999999994
H      47.243800000000000     47.541590000000006     43.487999000000002
H      48.512700000000002     49.653990000000000     43.180699000000004
H      41.797199999999997     49.861989999999999     48.202499000000003
H      42.986300000000000     48.797390000000000     48.962198999999998
H      42.534299999999995     48.537089999999999     47.057198999999997
H      53.995299999999993     44.152409999999996     52.143399000000002
H      53.443199999999997     45.914189999999998     52.396877000000003
H      45.531799999999997     45.883090000000003     51.177999000000000
H      47.835599999999992     45.478289999999994     45.999199000000004
H      52.207400000000000     44.606749999999998     52.503930000000011
H      44.513500000000001     45.348390000000002     52.819300999999996
H      54.202800000000003     44.726710000000004     49.904298999999995
H      53.353100000000005     44.839669999999998     47.569399000000004
H      45.774799999999999     49.886690000000009     45.587198999999998
H      51.223099999999995     44.197470000000003     47.092499000000004
H      47.710999999999991     46.322790000000005     52.374171900000007
H      48.982099999999996     46.543590000000002     46.259899000000004
H      44.352100000000000     51.663689999999995     45.587898999999993
H      42.597299999999997     51.847590000000004     46.336399000000000
H      44.465799999999994     49.760790000000007     51.545898999999991
N      49.967099999999995     45.487890000000000     51.508298999999994
