21

C      47.086999999999989     46.466299999999990     48.550699999999992
C      49.135200000000012     48.988500000000009     49.935600000000001
C      47.564600000000013     47.758299999999998     47.941699999999997
C      48.626900000000006     48.640000000000001     48.481699999999996
C      46.848799999999997     48.439099999999989     46.868899999999996
C      49.315100000000001     49.344799999999999     47.519100000000002
C      47.351100000000002     49.416499999999992     45.978699999999996
C      48.756600000000006     49.778500000000001     46.291800000000002
C      47.567700000000002     46.372499999999995     50.022799999999997
H      47.200199999999995     45.527999999999999     47.956499999999998
H      45.962400000000002     46.465600000000002     48.587899999999998
H      48.610500000000002     49.945699999999995     50.199400000000004
H      48.902900000000002     48.169599999999996     50.724299999999992
H      45.681399999999996     48.147900000000000     46.698399999999999
H      50.318600000000004     49.900100000000002     47.629399999999997
H      46.942200000000000     50.042800000000007     45.196999999999996
H      49.439800000000005     50.652600000000000     46.082699999999996
H      47.968400000000003     46.977899999999998     50.803000000000004
H      46.507700000000000     46.251300000000001     50.285199999999996
H      47.845100000000002     45.347400000000000     50.228299999999997
H      50.161600000000007     49.357199999999999     49.867599999999996
