5

C      47.780449999999995     47.890199999999993     48.086149999999989
H      47.714449999999999     47.794000000000004     46.947550000000000
H      47.777249999999995     47.291800000000002     49.052450000000000
H      48.799949999999995     48.143300000000004     48.153250000000007
H      47.200050000000005     48.708199999999998     48.218349999999994
