6

C      48.061399999999992     47.815549999999995     47.245099999999994
C      47.562599999999996     48.233249999999998     48.587600000000009
H      48.886100000000006     48.351650000000006     46.817099999999996
H      48.316300000000005     46.792050000000003     47.043199999999999
H      48.526900000000005     48.147250000000000     49.182900000000004
H      47.113899999999994     49.207949999999997     48.531000000000006
