5

C      47.796250000000001     47.647799999999997     47.982249999999993
H      47.680250000000001     47.155100000000004     47.140050000000002
H      47.182050000000004     47.275100000000002     48.859949999999998
H      47.841349999999991     48.844899999999996     47.989850000000004
H      48.817949999999996     47.355699999999999     48.554950000000005
