6

C      48.122549999999990     48.584349999999993     47.562299999999986
C      47.824750000000002     47.429249999999996     48.408900000000003
H      48.425549999999994     49.646850000000001     47.796099999999996
H      47.998950000000001     48.785249999999998     46.559600000000003
H      47.574450000000006     47.774149999999999     49.440399999999997
H      47.744149999999998     46.353149999999999     48.043499999999995
