5

C      47.754749999999987     48.044099999999986     47.657599999999995
H      47.202749999999995     48.956000000000003     47.133499999999998
H      47.625950000000003     48.037599999999998     48.866500000000002
H      47.632949999999994     47.043999999999997     47.436900000000001
H      48.797250000000005     48.609300000000005     47.223100000000002
