49

C      47.671249999999993     43.584709999999987     52.266469999999998
C      47.455950000000001     49.525040000000004     45.596980000000002
C      46.372950000000003     48.616000000000007     45.192120000000003
C      46.407849999999996     47.147080000000003     49.413770000000000
C      48.101050000000001     49.072610000000005     46.733379999999997
C      45.575850000000003     47.704940000000001     45.804760000000002
C      47.633350000000000     47.550290000000011     48.916370000000001
C      45.336550000000003     47.040299999999995     48.339370000000002
C      47.425249999999998     48.115970000000004     47.555970000000002
C      46.038750000000000     47.682590000000012     47.233069999999998
C      48.286150000000006     50.137840000000004     44.541179999999997
C      47.439850000000000     50.641420000000004     43.552009999999996
C      46.175349999999995     50.059210000000000     43.426670000000001
C      48.787549999999996     47.488800000000005     49.756069999999994
C      46.256249999999994     46.537200000000006     50.809169999999995
C      48.122550000000004     51.028260000000010     42.138369999999995
C      48.660950000000000     52.277750000000005     42.262659999999997
C      48.292450000000002     45.057640000000013     54.575170000000000
C      50.608350000000002     45.355860000000014     53.411869999999993
C      48.357950000000002     45.507260000000009     53.215369999999993
C      49.691249999999997     45.756010000000003     52.685369999999992
C      47.253149999999998     45.057930000000006     52.187969999999993
C      49.993749999999999     46.598930000000003     51.728669999999994
C      47.575949999999999     45.675020000000011     50.780069999999995
C      48.683949999999996     46.642320000000005     50.943569999999994
H      48.636650000000003     43.473009999999995     51.526569999999992
H      47.041150000000002     42.746509999999994     52.048370000000006
H      48.910350000000008     49.676560000000002     47.033169999999998
H      44.619749999999996     47.399290000000001     45.182180000000002
H      44.433949999999996     46.397929999999995     48.371070000000003
H      48.294049999999999     53.060679999999998     40.588530000000006
H      45.867449999999998     51.358200000000004     41.888459999999995
H      49.555250000000001     48.126230000000014     49.570269999999994
H      45.311149999999998     46.029490000000003     51.068070000000006
H      46.184950000000001     47.369859999999996     51.578969999999998
H      47.641149999999996     50.987360000000002     41.155069999999995
H      49.480850000000004     50.402700000000003     44.580759999999998
H      49.104950000000002     52.537560000000006     43.301360000000003
H      48.227750000000000     43.249509999999994     53.391569999999987
H      47.697749999999999     44.154113000000002     54.896869999999993
H      47.996650000000002     45.666810000000005     55.411469999999994
H      50.349350000000001     45.193880000000007     54.489069999999998
H      51.566050000000004     45.198390000000003     52.962969999999999
H      46.422750000000001     45.235239999999997     52.823570000000004
H      50.695549999999997     47.620490000000004     51.998369999999994
H      47.458349999999996     44.820616000000008     49.865769999999998
N      45.804749999999999     49.030970000000003     44.093940000000003
O      48.570850000000000     53.253490000000006     41.389759999999995
O      45.511849999999995     50.441200000000002     42.326110000000000
