6

C      47.733749999999993     47.778599999999997     47.294199999999989
C      47.896250000000002     48.573199999999993     48.449600000000004
H      46.885750000000002     47.182499999999997     47.148099999999999
H      48.665850000000006     47.885299999999994     46.653199999999998
H      49.114249999999998     48.817500000000003     48.626000000000005
H      47.208950000000002     48.600000000000001     49.346800000000002
