40

C      48.811649999999993     48.399499999999996     47.825783999999992
C      49.302250000000001     47.418700000000001     48.786614000000000
C      51.451450000000001     45.655900000000003     45.014904000000001
C      48.938450000000003     47.940800000000003     46.443604000000001
C      50.044349999999994     46.248699999999999     48.265544000000006
C      50.376350000000002     46.522100000000002     44.661804000000004
C      49.958550000000002     46.975700000000003     46.065683999999997
C      50.590949999999999     46.131200000000007     46.978554000000003
C      47.644250000000000     49.228800000000007     47.955654000000010
C      46.993749999999999     49.449800000000010     49.154954000000004
C      47.375349999999997     48.571300000000008     50.164853999999991
C      48.634650000000001     47.688700000000004     50.125094000000004
C      47.179850000000002     49.697699999999998     46.663823999999998
C      46.444150000000000     50.937299999999993     46.895713999999998
C      45.803150000000002     51.083799999999997     48.066873999999999
C      47.993949999999998     48.898600000000002     45.677123999999999
C      50.378050000000002     45.226100000000002     49.263593999999998
C      51.373149999999995     44.247100000000003     49.031593999999998
C      48.836749999999995     47.422600000000003     51.382934000000006
C      46.792549999999999     48.558599999999998     51.606554000000003
C      47.742549999999994     47.779000000000003     52.337783999999999
C      49.911249999999995     46.616000000000000     43.308883999999999
C      44.518050000000002     52.034400000000005     48.118583999999998
H      44.335149999999999     52.003399999999999     49.203783999999999
H      52.171849999999999     45.058500000000002     44.226744000000004
H      46.135449999999999     51.692400000000006     46.154474000000000
H      48.396050000000002     49.521799999999999     44.800434000000003
H      51.174250000000001     43.275199999999998     49.603254000000007
H      49.798649999999995     45.093100000000007     50.361913999999999
H      52.168849999999992     44.484600000000000     48.259974000000000
H      49.701049999999995     46.710500000000003     51.676344000000000
H      45.209049999999998     49.582499999999996     51.522143999999997
H      47.691549999999999     47.732300000000002     53.563383999999999
H      48.889849999999996     46.946700000000007     43.051943999999999
H      43.828150000000001     51.205000000000005     47.668723999999997
H      45.116849999999999     52.724800000000002     47.319094000000000
H      50.544049999999999     46.298800000000000     42.436616000000001
N      51.514750000000006     45.487400000000008     46.278683999999998
N      46.020449999999997     50.423200000000008     49.147914000000000
O      45.619550000000004     48.890200000000007     52.034883999999998
