22

C      47.017749999999985     47.013090999999974     49.972899999999996
C      48.624749999999992     47.199037999999980     49.719799999999999
C      46.278149999999997     47.130997999999984     48.574000000000005
C      49.080249999999992     46.454859999999975     48.405300000000004
C      47.283549999999991     47.985089999999992     47.628200000000000
C      48.451849999999993     47.640809999999981     47.399600000000000
C      46.551649999999995     48.994739999999986     46.785499999999992
C      49.377650000000003     48.526439999999987     46.715799999999994
C      47.407150000000001     49.691799999999979     45.925499999999992
C      48.798450000000003     49.480069999999976     45.990099999999991
H      46.669550000000001     47.819239999999986     50.772799999999997
H      46.603549999999998     45.931259999999988     50.359900000000003
H      48.750149999999991     48.218839999999993     49.597500000000004
H      49.415449999999993     46.886235999999982     50.692399999999999
H      46.189849999999993     46.241460000000011     47.864600000000003
H      45.600449999999995     47.820999999999984     49.175999999999995
H      48.452649999999991     45.581360000000011     48.529000000000003
H      50.103949999999998     46.284759999999999     48.126299999999993
H      45.582750000000004     49.427669999999985     46.910699999999999
H      50.417249999999996     48.120489999999982     46.595499999999994
H      46.696249999999992     50.418639999999989     45.233600000000003
H      49.426649999999995     50.134549999999983     45.227200000000003
