16

C      45.742949999999993     48.525949999999995     47.427549999999989
C      47.290150000000004     48.172950000000007     49.928249999999991
C      46.941850000000002     47.812249999999999     47.374449999999996
C      47.761450000000004     47.768149999999999     48.754849999999998
C      47.810250000000003     47.672150000000002     46.224549999999994
C      49.102950000000000     47.257050000000000     48.816350000000000
C      49.114750000000001     47.352250000000005     46.481749999999991
C      49.816849999999995     47.254950000000001     47.758049999999997
H      45.064050000000002     48.706949999999999     46.596750000000000
H      45.310749999999999     49.021549999999998     48.414649999999995
H      46.121150000000000     48.531650000000006     49.998249999999999
H      47.942050000000002     48.069750000000006     50.767949999999999
H      47.270550000000000     47.722450000000002     45.232050000000001
H      49.542049999999996     46.978450000000002     49.742349999999995
H      49.782850000000003     47.220950000000002     45.694749999999999
H      50.935949999999998     47.105550000000001     47.826650000000001
