22

C      46.758599999999994     46.047099999999993     47.413300000000000
C      48.179600000000008     45.361699999999999     47.657100000000000
C      46.939800000000005     47.292700000000011     46.513900000000007
C      49.288400000000010     46.507600000000004     47.922100000000000
C      47.562700000000007     48.267400000000009     47.609999999999999
C      48.493300000000005     47.657799999999995     48.530900000000003
C      46.906700000000001     49.385600000000004     48.154100000000000
C      49.358000000000004     48.422400000000003     49.510000000000005
C      47.660499999999999     50.228400000000008     49.063600000000008
C      48.770200000000003     49.716200000000015     49.626400000000004
H      46.616000000000000     45.994599999999998     48.488000000000000
H      46.013800000000003     45.446200000000005     46.883900000000011
H      48.372600000000006     44.607199999999999     48.415100000000010
H      48.476300000000009     44.888800000000003     46.741600000000005
H      45.966499999999996     47.835200000000000     46.263700000000000
H      47.605800000000002     46.808199999999999     45.729900000000001
H      49.970900000000000     46.958900000000000     46.885500000000008
H      50.189400000000006     45.850300000000004     48.475200000000001
H      45.745300000000000     49.809500000000007     47.796600000000012
H      50.254700000000000     48.073300000000003     49.999400000000009
H      47.447400000000002     51.392800000000001     49.187600000000003
H      49.486000000000004     50.207600000000006     50.270099999999999
