18

C      48.681899999999992     50.065750000000001     48.343909999999994
C      47.469200000000001     48.188850000000002     50.251080000000002
C      48.426199999999994     48.602550000000008     47.833230000000000
C      47.785999999999994     47.779350000000008     48.781430000000000
C      48.397099999999995     48.197450000000003     46.600009999999997
C      47.111100000000000     46.562550000000002     48.429199999999994
C      47.659299999999995     47.135550000000009     46.082689999999999
C      47.087899999999998     46.353750000000005     47.110849999999999
H      49.634000000000000     50.605649999999997     48.608090000000004
H      47.779399999999995     50.228750000000005     49.133110000000002
H      48.520099999999999     50.327750000000009     47.301609999999997
H      46.366000000000000     48.676850000000002     49.997029999999995
H      47.943500000000000     49.020150000000001     50.710880000000003
H      48.844600000000000     48.930950000000010     45.863900000000001
H      46.628999999999998     45.914550000000006     49.115539999999996
H      47.389399999999995     46.935450000000003     45.052570000000003
H      46.568700000000000     45.394350000000003     46.756619999999998
H      47.376500000000000     47.337649999999996     50.947429999999997
