6

C      48.463799999999992     47.898664999999987     47.606899999999996
C      47.428599999999996     47.705614999999995     48.469800000000014
H      46.546500000000002     47.922645000000003     47.833800000000004
H      49.453499999999998     47.934455000000000     47.860099999999996
H      48.324100000000001     48.294385000000005     46.633400000000002
H      47.190399999999997     48.247495000000001     49.366599999999998
