22

C      49.677904999999988     47.575159999999983     46.637049999999995
C      50.220614999999995     48.856960000000001     47.322249999999997
C      49.214884999999995     46.645539999999997     47.866550000000004
C      49.028994999999995     49.818320000000000     47.960149999999999
C      48.050944999999999     47.381140000000002     48.527950000000004
C      48.029224999999997     48.861100000000008     48.473249999999993
C      46.918254999999995     46.637670000000000     48.837549999999993
C      46.819755000000001     49.519469999999998     48.863050000000001
C      45.961005000000000     47.357839999999996     49.395250000000004
C      45.786535000000001     48.743319999999997     49.294650000000004
H      50.277104999999999     47.017989999999998     45.953749999999999
H      48.919595000000001     47.832809999999995     46.054749999999999
H      51.071645000000004     48.694239999999994     48.118250000000003
H      50.803245000000004     49.391189999999995     46.567449999999994
H      50.224734999999995     46.648029999999991     48.477450000000005
H      49.271544999999996     45.542599999999993     47.684550000000002
H      48.693815000000001     50.113190000000003     46.975350000000006
H      49.465094999999998     50.548650000000009     48.551550000000006
H      47.036504999999998     45.451349999999991     49.251149999999996
H      46.660615000000000     50.495559999999998     48.369950000000003
H      45.007764999999999     46.722169999999991     50.046250000000001
H      44.928354999999996     49.396140000000003     49.409449999999993
