45

C      44.650132999999983     45.965149999999994     48.860599999999998
C      45.744519999999994     45.250950000000003     49.366400000000013
C      48.359199999999987     48.085949999999997     46.359500000000004
C      49.218619999999987     48.307050000000004     47.602700000000006
C      44.977107999999987     46.848749999999995     47.809500000000000
C      46.982779999999991     45.863450000000000     49.396100000000004
C      46.931159999999991     47.841749999999990     46.260600000000004
C      48.635309999999990     47.679450000000003     48.883799999999994
C      46.365459999999999     47.341350000000006     47.479800000000004
C      47.236789999999999     46.969549999999998     48.598300000000002
C      43.991419999999991     47.374849999999995     46.876200000000004
C      44.319660999999996     48.014949999999999     45.648600000000002
C      45.674889999999991     48.226450000000000     45.451000000000001
C      44.894486999999998     44.406750000000002     50.306600000000003
C      48.957470000000001     48.121849999999995     50.165800000000004
C      49.340039999999988     48.690150000000003     45.408000000000001
C      49.537619999999990     49.401849999999996     50.419000000000004
C      51.989699999999999     49.023650000000004     49.888700000000000
C      49.955229999999986     50.185950000000005     49.135700000000000
C      51.278519999999986     50.107550000000003     48.890100000000004
C      49.223649999999992     51.167150000000007     48.324200000000005
C      51.951859999999996     50.595149999999990     47.694800000000001
C      49.868079999999992     51.939849999999993     47.417300000000004
C      51.144859999999994     51.469049999999996     46.933500000000002
H      43.572819999999993     45.370350000000002     48.862900000000010
H      50.294439999999994     48.183750000000003     47.102200000000003
H      47.866879999999995     45.259550000000004     49.752200000000002
H      42.910520000000005     47.385450000000006     46.929100000000005
H      43.576620000000020     48.597250000000003     45.105600000000003
H      46.191829999999996     48.781250000000000     44.691300000000005
H      43.950219999999987     44.094650000000001     49.640400000000000
H      45.292129999999986     43.489950000000007     50.822700000000012
H      44.931411999999995     44.730649999999997     51.359899999999996
H      48.526759999999996     47.705950000000001     51.090900000000005
H      53.037130000000005     48.822150000000008     49.558700000000002
H      50.477789999999999     48.560150000000007     45.322300000000006
H      49.235689999999991     47.657950000000000     44.640100000000004
H      49.167319999999989     49.953550000000007     51.268400000000000
H      51.983769999999993     49.507349999999988     50.940400000000004
H      51.594170000000005     47.918250000000000     49.835700000000003
H      48.236669999999989     51.280550000000005     48.758100000000006
H      53.089479999999995     50.483750000000001     47.440000000000005
H      49.094009999999997     52.510049999999993     46.861500000000007
H      51.644069999999999     51.496849999999995     45.896800000000006
H      48.860739999999993     49.388249999999999     44.772100000000002
