50

C      46.989549999999994     44.680644999999984     48.744299999999988
C      46.328050000000005     43.924314999999993     49.864599999999996
C      43.664249999999996     42.354844999999997     46.124300000000005
C      46.592849999999999     44.267534999999995     47.334000000000003
C      45.430750000000003     42.896015000000006     49.382499999999993
C      44.860150000000004     43.060095000000004     45.635800000000003
C      43.767750000000007     42.153845000000004     47.522199999999998
C      45.508449999999996     43.385954999999996     46.853499999999997
C      44.946650000000005     42.772575000000003     48.040700000000001
C      47.949150000000003     45.602564999999998     49.026600000000002
C      48.457449999999994     45.576004999999995     50.351699999999994
C      47.869749999999996     44.986855000000006     51.524799999999999
C      46.935749999999999     43.977774999999994     51.218199999999996
C      48.633750000000006     46.102324999999993     47.850200000000001
C      49.364249999999998     47.267375000000001     48.265199999999993
C      49.933549999999997     47.226405000000000     49.546199999999999
C      49.560649999999995     46.425635000000000     50.666200000000003
C      47.571950000000001     44.745985000000005     46.436199999999999
C      49.465050000000005     48.566554999999994     47.402500000000003
C      50.035150000000002     49.736755000000002     48.209900000000005
C      51.427949999999996     52.487555000000000     49.088099999999997
C      50.438150000000007     50.877054999999999     47.062100000000001
C      51.907250000000005     53.318055000000001     47.943799999999996
C      51.526650000000004     51.155955000000006     46.665000000000006
C      52.099550000000008     52.599254999999999     46.690600000000003
C      52.079450000000008     50.466555000000000     45.583399999999997
C      52.725750000000005     53.308255000000003     45.654399999999995
C      52.411649999999995     51.246355000000008     44.431699999999992
C      52.804250000000010     52.621054999999998     44.483599999999996
H      42.838949999999997     42.048905000000005     45.880300000000005
H      44.871949999999998     42.124525000000006     49.956099999999992
H      45.016850000000005     43.736324999999994     44.641199999999998
H      43.046949999999995     41.621544999999998     48.049899999999994
H      47.964550000000003     45.209455000000005     52.562399999999997
H      46.493650000000002     43.515445000000000     52.163100000000000
H      50.711050000000014     47.948505000000011     49.696799999999996
H      50.074250000000006     46.596705000000000     51.635099999999994
H      47.361650000000012     44.328445000000002     45.525300000000001
H      49.654949999999999     51.045355000000001     46.250600000000006
H      49.183350000000004     50.331455000000005     48.826300000000003
H      51.865849999999995     52.777955000000006     50.101299999999995
H      50.957350000000005     49.565654999999992     48.683700000000002
H      50.882850000000005     51.616155000000006     48.960999999999999
H      51.957950000000011     54.370855000000006     48.309500000000000
H      51.813350000000000     49.527754999999999     45.288700000000006
H      52.889350000000007     54.378455000000002     45.853499999999997
H      52.299450000000007     50.962555000000009     43.437600000000003
H      53.161050000000003     53.242954999999995     43.694999999999993
N      48.532650000000004     45.551265000000001     46.618899999999996
O      48.612849999999995     48.773025000000004     46.546099999999996
