6

C      47.725049999999996     48.602749999999986     48.156899999999993
C      48.518149999999999     47.359649999999995     48.161600000000000
H      47.752649999999996     49.602550000000001     47.879600000000003
H      46.523850000000003     48.172349999999987     48.361499999999999
H      49.476149999999997     47.616149999999998     47.638500000000001
H      48.043349999999997     46.397449999999999     47.949800000000003
