21

C      50.049149999999990     47.084350000000001     49.374349999999993
C      49.591850000000008     46.809250000000006     47.983049999999999
C      48.597050000000003     49.909050000000008     47.599250000000005
C      48.274850000000001     47.306749999999994     47.268250000000002
C      47.807450000000003     48.550950000000000     47.087750000000007
C      47.576250000000002     46.149550000000005     46.846150000000002
C      46.560450000000003     48.650350000000003     46.302050000000001
C      46.188350000000000     46.193449999999999     46.523850000000003
C      45.834750000000000     47.573250000000002     46.110050000000008
H      49.350250000000003     45.669150000000002     48.108950000000000
H      49.729550000000003     48.066450000000003     49.800150000000009
H      49.845349999999996     46.402850000000001     50.347349999999999
H      49.710750000000004     49.731949999999998     47.511050000000004
H      50.534850000000006     47.218450000000004     47.336450000000006
H      48.115549999999999     49.695750000000004     48.698349999999998
H      51.166550000000001     47.087550000000007     49.871850000000002
H      48.427750000000003     50.950149999999994     47.166450000000005
H      47.975349999999999     45.049850000000006     46.717950000000009
H      46.163150000000002     49.723849999999999     46.096550000000001
H      45.728450000000002     45.348750000000010     45.914250000000003
H      44.833449999999999     47.626750000000001     45.652650000000001
