53

C      45.842849999999999     44.449099999999987     43.213249999999995
C      46.162350000000004     46.312600000000003     49.108450000000005
C      46.441350000000000     46.401000000000010     47.784950000000009
C      48.967550000000003     50.058599999999998     50.171549999999996
C      48.733649999999997     50.638099999999994     48.869150000000005
C      46.379949999999994     47.316699999999997     50.139650000000003
C      47.280649999999994     47.622599999999991     47.120650000000005
C      47.913550000000001     49.132300000000001     50.724250000000005
C      47.955849999999998     49.929499999999990     47.815049999999999
C      47.208349999999996     48.373999999999995     49.651049999999998
C      47.592550000000003     48.609299999999990     48.258949999999999
C      45.155550000000005     45.403700000000001     49.684250000000006
C      44.601849999999999     44.302999999999997     48.754949999999994
C      45.172449999999998     44.264299999999992     47.479749999999996
C      45.848349999999996     45.444599999999994     47.014650000000003
C      49.964249999999993     50.644100000000009     50.989449999999991
C      50.799850000000006     51.665499999999994     50.500550000000004
C      50.408150000000006     52.128799999999998     49.241649999999993
C      49.432649999999995     51.611300000000000     48.409750000000003
C      44.433949999999996     45.436999999999998     51.019449999999999
C      43.755650000000003     43.417800000000000     50.452250000000006
C      45.035250000000005     46.289100000000005     51.927850000000007
C      45.691649999999996     47.381199999999993     51.480350000000001
C      46.212450000000004     48.417100000000005     52.367249999999999
C      45.429950000000005     45.802999999999997     45.652349999999998
C      45.407049999999998     44.440500000000000     44.559550000000002
C      47.441749999999999     49.099599999999995     52.119749999999996
C      51.761650000000003     52.729299999999995     51.195550000000004
H      45.844750000000005     43.547200000000004     42.590550000000000
H      45.901250000000005     45.431799999999996     42.699750000000002
H      46.366749999999996     47.922499999999999     46.472350000000006
H      50.845450000000000     52.945400000000006     48.768250000000002
H      43.237750000000005     42.502399999999994     50.796150000000004
H      45.656250000000000     48.458300000000008     53.314950000000010
H      48.233649999999997     47.244100000000003     46.755850000000002
H      45.006749999999997     43.550299999999993     44.791150000000002
H      51.188049999999990     49.768599999999992     52.496549999999999
H      45.335549999999998     43.065799999999996     46.053550000000001
H      47.620449999999991     51.209499999999991     46.048850000000002
H      48.289649999999995     52.712699999999998     47.639049999999997
H      44.181449999999998     45.327900000000000     53.409450000000000
H      47.602050000000006     49.734999999999999     53.070250000000001
H      52.762249999999995     53.120800000000003     50.822350000000000
H      52.214950000000002     52.058499999999995     51.954250000000002
H      51.180250000000001     53.497600000000006     51.536850000000001
N      43.619950000000003     44.395899999999997     51.342350000000010
N      44.118849999999995     43.234099999999998     49.196449999999999
O      45.296350000000004     46.859099999999998     45.244950000000003
O      50.248949999999994     50.218000000000004     52.282150000000001
O      44.832650000000001     46.042900000000003     53.216850000000001
O      44.814750000000004     43.107299999999995     46.757750000000001
O      47.703249999999997     50.408500000000004     46.558250000000001
O      49.252549999999999     52.453000000000003     47.339350000000010
