5

C      47.862879999999997     48.013649999999984     47.843339999999991
H      47.034199999999998     48.449949999999994     47.326090000000001
H      48.417619999999999     47.332749999999997     47.174660000000003
H      48.965800000000002     48.667250000000003     47.653720000000000
H      47.638880000000000     47.578449999999997     48.825339999999997
