5

C      48.078149999999987     48.032449999999997     47.807499999999990
H      48.912549999999996     48.825149999999994     47.587800000000001
H      48.325949999999992     47.174850000000006     47.138800000000003
H      48.321249999999992     47.472050000000010     48.861199999999997
H      47.087450000000004     48.196849999999998     47.454300000000003
