5

C      48.119999999999997     47.971299999999992     48.162349999999989
H      47.155299999999997     48.508799999999994     47.893849999999993
H      48.844700000000003     47.975499999999997     47.281849999999999
H      48.172200000000004     48.968699999999998     48.706550000000000
H      47.674099999999996     47.031300000000002     48.718150000000001
