54

C      46.525359999999985     47.393069999999994     46.509449999999987
C      51.331720000000004     47.030789999999996     51.607849999999999
C      46.620759999999990     46.024468700000000     47.140449999999987
C      51.068120000000000     46.075766999999999     50.667749999999998
C      47.031459999999996     48.644499999999994     47.076249999999987
C      50.595180000000006     48.322259999999986     51.414549999999991
C      47.682559999999995     46.151393999999996     48.090549999999993
C      49.844024000000005     46.193021999999999     49.843149999999994
C      48.133560000000003     49.960479999999990     48.979049999999987
C      49.037559999999999     49.905589999999989     50.164649999999995
C      47.857959999999991     48.691069999999996     48.137649999999994
C      49.586359999999999     48.451830000000001     50.447549999999993
C      48.328260000000000     47.338250000000002     48.431749999999994
C      49.357959999999991     47.444879999999998     49.530849999999987
C      48.299759999999992     44.953610000000012     48.490449999999996
C      49.348159999999993     44.734510000000000     49.441849999999988
C      45.273259999999993     47.405919999999995     45.638249999999999
C      44.429159999999996     46.203205999999994     45.772049999999993
C      46.163460000000001     44.862010000000012     46.525049999999993
C      46.653759999999991     43.585110000000000     46.870349999999988
C      47.757660000000001     43.651610000000019     47.898249999999990
C      46.398359999999997     49.985379999999992     46.761049999999997
C      45.162459999999996     49.937209999999993     46.605949999999993
C      44.896760000000000     48.010300000000001     44.402949999999990
C      51.648319999999998     44.702010000000016     50.869149999999991
C      50.519013999999999     43.703610000000012     51.488649999999993
C      49.602660000000000     43.622309999999999     50.286649999999995
C      47.580759999999998     51.167859999999990     48.758249999999990
C      47.797659999999993     52.220699999999994     49.852749999999986
C      47.348159999999993     50.314509999999999     45.422749999999994
H      52.027230000000003     47.037349999999989     52.401049999999998
H      50.535168000000006     49.217429999999993     52.132749999999987
H      49.912516000000011     50.745189999999994     50.268349999999998
H      43.474059999999994     46.747112000000001     45.555349999999990
H      46.280360000000002     42.708610000000007     46.291149999999988
H      48.200459999999993     42.755710000000008     48.216749999999990
H      44.729759999999999     50.842769999999987     46.016949999999994
H      44.340260000000001     49.599499999999992     47.238649999999993
H      45.624259999999992     48.283890000000000     43.598950000000002
H      43.924160000000001     47.562999999999988     43.800249999999991
H      52.125180000000000     44.345710000000011     49.799749999999989
H      50.852080000000001     42.737309999999994     51.688549999999992
H      52.525940000000006     45.150109999999984     51.566049999999990
H      48.804959999999994     43.028509999999983     50.704349999999991
H      47.217460000000003     51.890669999999986     50.696449999999999
H      47.664760000000001     53.291389999999993     49.496349999999993
H      48.884259999999998     52.060449999999989     50.214249999999993
H      46.758960000000002     51.193159999999992     45.139149999999987
H      48.367159999999998     50.352809999999991     45.502249999999989
H      47.240259999999992     49.273119999999992     45.048949999999991
H      49.843387000000007     44.101010000000016     52.337649999999996
H      48.501559999999998     50.144629999999992     51.147250000000000
N      44.859059999999999     45.079610000000017     46.130349999999993
O      46.677560000000000     51.154240000000001     47.837349999999986
