22

C      45.779949999999985     49.340449999999997     47.241149999999998
C      46.807350000000000     50.300650000000005     48.014350000000007
C      46.601450000000000     47.920150000000007     46.973450000000000
C      47.320650000000001     49.588050000000010     49.247749999999996
C      47.726150000000004     47.340850000000003     47.743150000000000
C      48.132049999999992     48.391850000000005     48.623949999999994
C      48.253649999999993     45.957850000000008     47.796149999999997
C      49.257350000000002     47.872650000000007     49.320750000000004
C      49.523949999999999     45.788550000000001     48.118250000000003
C      50.122349999999997     46.905749999999998     48.736750000000001
H      44.833349999999996     49.709850000000003     46.820549999999997
H      45.214849999999998     48.880750000000006     48.055549999999997
H      46.242649999999998     51.155749999999998     48.271749999999997
H      47.446550000000002     50.177949999999996     47.010050000000007
H      46.573149999999998     47.460850000000008     45.929050000000004
H      45.813549999999992     47.316850000000002     47.403450000000007
H      46.417349999999999     49.292050000000003     49.882450000000006
H      47.921950000000010     50.334950000000006     49.805250000000001
H      47.552549999999997     45.270550000000000     47.432450000000003
H      49.721850000000003     48.753349999999998     50.070949999999996
H      49.911250000000010     44.844250000000002     48.251149999999996
H      51.166650000000004     46.998550000000002     48.769050000000007
