8

C      48.355091999999985     47.955049999999993     48.841449999999995
C      47.681691999999998     47.641249999999999     47.490349999999999
H      48.345692000000000     46.961550000000003     46.875250000000001
H      48.709180000000003     49.038449999999997     48.998550000000002
H      47.753092000000009     48.288049999999998     46.571750000000002
H      47.551692000000003     48.069950000000006     49.428249999999998
H      46.751491999999999     46.971050000000005     47.686050000000002
H      49.248508000000001     47.499250000000004     49.427950000000003
