14

C      45.843949999999992     47.734199999999994     47.256449999999987
C      48.224150000000002     49.123699999999999     47.545749999999991
C      47.190049999999992     48.001000000000005     47.881949999999996
C      49.028250000000000     46.945300000000003     49.038349999999994
C      49.549349999999997     49.067900000000002     47.926549999999999
C      49.954949999999990     47.975200000000001     48.591950000000004
C      47.649250000000002     46.929400000000001     48.552549999999989
H      45.585149999999999     48.338900000000010     46.239449999999998
H      45.036450000000002     47.166600000000003     47.805649999999993
H      47.904649999999997     49.879800000000003     46.756849999999993
H      49.173750000000005     46.156000000000006     49.760550000000002
H      50.247350000000004     49.840299999999999     47.649149999999999
H      50.963549999999998     47.916100000000000     48.821049999999993
H      46.906450000000000     46.120199999999997     48.884449999999994
