8

C      48.582049999999995     48.177349999999983     48.672999999999988
C      47.062649999999998     47.861549999999994     48.020200000000003
H      49.350349999999999     48.299449999999993     48.087999999999994
H      48.902449999999995     47.369749999999996     49.274699999999996
H      46.665050000000001     46.903750000000002     48.435299999999998
H      46.922449999999991     47.698650000000001     46.725300000000004
H      46.649650000000001     48.881649999999993     47.771799999999999
H      48.376550000000002     49.096249999999998     49.200600000000009
