5

C      48.130249999999997     47.923999999999999     47.850850000000001
H      47.663250000000005     48.799099999999996     47.315150000000003
H      47.274749999999997     47.200900000000004     47.636049999999997
H      48.725250000000003     47.480000000000004     47.052650000000000
H      48.170349999999999     47.950500000000005     48.947350000000000
