5

C      47.945999999999998     48.435049999999990     47.886049999999997
H      47.840800000000002     48.734450000000002     48.874849999999995
H      48.954899999999995     48.518250000000002     47.489949999999993
H      47.838400000000007     47.230449999999998     48.134550000000004
H      47.045100000000005     48.769550000000002     47.125150000000005
