6

C      48.618099999999998     48.359849999999994     48.170149999999992
C      47.390400000000000     48.308149999999998     48.374350000000000
H      48.956500000000005     48.426450000000003     47.099150000000002
H      49.280799999999999     47.587050000000005     48.590850000000003
H      46.808899999999994     48.494150000000005     47.439250000000001
H      46.719200000000001     47.505849999999995     48.900849999999998
