5

C      48.122999999999990     48.116249999999994     47.613599999999998
H      48.873900000000006     48.907149999999994     47.311499999999995
H      47.126099999999994     48.126950000000001     47.191699999999997
H      48.577100000000002     47.092850000000006     47.588499999999996
H      48.252099999999999     48.300350000000002     48.808300000000003
