62

C      48.146499999999989     51.570609999999995     48.583049999999986
C      48.580300000000008     50.436840000000004     49.346349999999994
C      45.441099999999992     48.554440000000014     46.725549999999998
C      47.032499999999999     51.631790000000009     47.633950000000006
C      48.079200000000000     49.119314000000003     49.393250000000002
C      45.470200000000006     49.890782000000002     46.470649999999999
C      46.024099999999990     48.244540000000022     47.865950000000005
C      46.451499999999996     50.303850000000004     47.453850000000003
C      46.786599999999993     49.270862000000001     48.520649999999996
C      48.662899999999993     52.904079999999993     48.746550000000006
C      49.827900000000000     53.077910000000003     49.622350000000004
C      50.398099999999999     51.843360000000004     50.232350000000004
C      49.746400000000008     50.525910000000003     50.122849999999993
C      48.382199999999997     54.013559999999998     47.807150000000000
C      48.777199999999993     55.326580000000000     48.444949999999999
C      49.779800000000009     55.419879999999992     49.529750000000000
C      50.244999999999990     54.246320000000011     50.191549999999999
C      47.313499999999991     53.980890000000002     46.831850000000003
C      46.750999999999991     52.696230000000000     46.792349999999999
C      51.719999999999999     51.898200000000003     50.794249999999998
C      51.811599999999999     49.564374000000001     51.021350000000005
C      50.600899999999996     49.314391000000001     50.185349999999993
C      48.842699999999994     47.873939999999997     49.639950000000006
C      50.125100000000003     47.918940000000021     50.316650000000003
C      46.802599999999998     55.227190000000000     46.164049999999996
C      45.930399999999992     47.050940000000026     48.708149999999996
C      44.976699999999994     47.531340000000029     45.632550000000002
C      45.888999999999996     45.760940000000005     48.097349999999999
C      44.781400000000005     43.500840000000011     45.232349999999997
C      46.270799999999994     44.760139999999993     49.027250000000002
C      44.524799999999999     43.098740000000006     46.593249999999998
C      46.348199999999991     43.416140000000013     48.660249999999998
C      45.675899999999999     42.673940000000016     47.604649999999999
C      47.231499999999997     42.459040000000002     49.325150000000001
C      45.841700000000003     41.401640000000008     47.296849999999999
C      47.559799999999996     41.054539999999996     49.198850000000000
C      46.594700000000003     40.578539999999990     48.190050000000006
H      45.029299999999992     50.409030000000001     45.476250000000000
H      48.204200000000000     56.248170000000002     48.531150000000004
H      50.164199999999994     56.314959999999999     49.994449999999993
H      50.884500000000003     54.162430000000001     51.020350000000001
H      45.997399999999999     52.569670000000002     45.941749999999999
H      51.981600000000000     52.990020000000001     50.952850000000005
H      52.354600000000005     48.821840000000002     51.639350000000000
H      45.671800000000005     45.644439999999996     47.108449999999998
H      48.042900000000003     47.034640000000017     49.387849999999993
H      50.550699999999992     47.021540000000009     50.859950000000005
H      44.074500000000000     43.547440000000023     44.360650000000000
H      45.664599999999993     55.541780000000003     46.536850000000001
H      45.904200000000003     46.993240000000007     49.745650000000005
H      45.861599999999996     46.970340000000014     45.235950000000003
H      44.056100000000001     47.328040000000016     46.272750000000002
H      44.022800000000004     48.009139999999988     45.009650000000001
H      45.718499999999992     43.558340000000001     45.004150000000003
H      46.647099999999995     44.895440000000008     50.023249999999997
H      43.645399999999995     42.792940000000002     47.211149999999996
H      48.052799999999991     42.847339999999996     49.901450000000004
H      45.105499999999992     41.150340000000021     46.542650000000002
H      48.503599999999992     40.656940000000013     49.177649999999993
H      46.920699999999997     39.685040000000001     47.672949999999993
N      52.144599999999997     50.783500000000004     51.298750000000005
O      47.600700000000003     55.679119999999998     45.458250000000000
