141

C      49.194449999999989     48.450899999999990     52.668900000000001
C      49.532349999999994     49.210799999999999     53.793200000000006
C      47.205849999999998     53.313499999999991     52.846100000000007
C      49.066049999999990     49.088299999999990     51.276899999999998
C      49.072649999999996     50.514099999999992     54.389200000000002
C      48.627449999999996     51.056399999999989     49.925500000000007
C      49.175849999999997     50.505299999999998     51.072699999999998
C      48.159549999999996     51.333700000000000     53.727800000000002
C      49.436049999999994     46.991599999999998     52.385300000000001
C      50.513349999999988     46.358399999999996     53.099100000000007
C      50.991149999999990     47.134499999999996     54.217900000000000
C      50.449050000000000     48.450299999999991     54.635700000000007
C      48.787949999999995     46.178800000000003     51.562200000000004
C      48.963349999999991     44.624000000000002     51.379800000000003
C      50.156349999999989     44.190099999999994     51.956500000000005
C      51.028849999999991     45.099100000000000     52.672999999999995
C      47.946150000000003     48.960099999999990     49.231700000000004
C      48.217649999999992     48.273999999999994     50.563200000000009
C      52.414449999999988     46.760199999999990     54.608800000000002
C      53.084249999999997     47.923899999999996     55.222200000000001
C      52.520849999999996     48.935599999999994     56.012300000000003
C      51.225449999999995     49.183499999999995     55.611900000000006
C      50.203349999999986     51.195799999999991     55.094500000000011
C      50.905049999999989     50.626699999999985     56.212400000000002
C      46.863549999999989     45.945399999999999     50.117800000000003
C      48.161749999999998     50.156799999999990     48.786700000000010
C      52.019849999999991     44.418699999999994     53.586099999999995
C      52.935449999999989     45.433500000000002     54.542800000000000
C      47.804749999999999     43.894500000000001     50.961300000000008
C      46.872349999999997     44.534599999999990     50.246100000000006
C      47.885849999999991     46.772399999999998     50.614000000000004
C      54.456249999999997     47.279400000000003     55.305900000000001
C      51.469949999999997     51.046799999999990     57.215199999999996
C      48.829449999999994     52.478899999999996     49.896500000000003
C      49.919949999999986     51.185899999999997     52.103500000000011
C      49.453449999999989     53.309099999999994     50.820100000000011
C      50.024549999999991     52.585000000000001     51.931800000000010
C      49.348549999999989     54.725599999999993     50.856100000000005
C      51.034149999999997     53.271199999999993     52.828000000000003
C      50.067649999999986     55.223299999999995     52.074100000000001
C      50.652649999999994     54.467199999999998     53.290599999999998
C      45.775849999999991     53.115400000000001     50.844500000000011
C      41.520449999999997     44.558599999999991     54.796300000000002
C      41.390449999999987     43.682699999999990     53.543699999999994
C      46.266549999999995     52.536899999999996     52.005600000000001
C      45.424149999999983     52.105499999999999     49.934899999999999
C      41.760449999999992     45.960599999999992     54.609500000000011
C      42.721549999999993     45.744399999999992     50.702700000000007
C      43.349649999999997     47.104300000000002     50.579300000000003
C      44.932149999999993     50.786999999999999     53.228100000000005
C      44.588349999999991     49.500200000000000     50.462800000000001
C      43.757849999999991     48.537399999999991     54.045299999999997
C      42.058849999999993     45.448299999999996     52.107100000000003
C      45.389849999999996     51.326400000000000     52.077500000000008
C      45.093949999999992     50.914799999999993     50.629700000000000
C      44.532749999999993     49.465899999999991     53.051100000000005
C      42.260750000000002     46.250499999999995     53.299300000000002
C      43.524949999999990     47.687399999999990     51.882200000000005
C      44.167249999999996     49.015299999999989     51.767400000000009
C      42.938249999999996     47.546100000000003     53.146000000000008
C      43.651449999999997     47.586399999999990     49.249800000000008
C      44.494749999999996     48.704699999999995     49.323100000000011
C      43.699649999999991     46.567599999999992     48.158000000000001
C      44.603849999999994     46.631099999999996     47.080100000000002
C      45.397949999999994     47.801499999999997     47.203800000000001
C      45.094849999999994     49.146399999999993     47.932700000000011
C      43.055449999999993     45.333399999999990     48.276400000000010
C      42.430449999999993     44.862299999999998     49.615000000000009
C      44.847549999999984     45.470300000000002     46.163600000000002
C      45.976449999999986     45.497099999999996     45.216400000000007
C      46.741149999999990     46.556999999999995     45.303800000000010
C      46.506849999999986     47.573399999999999     46.400300000000001
C      43.445149999999984     44.164699999999989     47.479800000000012
C      44.278449999999992     44.279099999999993     46.265900000000002
C      41.626449999999991     43.679499999999997     49.798700000000011
C      41.653250000000000     44.124599999999994     52.216900000000010
C      41.499549999999985     43.324800000000003     50.987000000000009
C      47.950749999999999     42.683500000000002     39.092900000000007
C      48.316649999999996     42.134099999999997     40.405900000000003
C      47.124849999999995     41.361399999999996     40.771799999999999
C      46.615449999999996     40.539999999999999     39.555500000000009
C      46.227750000000000     41.686699999999995     38.663300000000007
C      46.527449999999988     41.041400000000003     41.978600000000007
C      46.654249999999990     42.179399999999994     42.980800000000002
C      45.167850000000001     42.749999999999993     43.149400000000007
H      47.131749999999997     54.323399999999999     52.844400000000007
H      53.042649999999995     49.351199999999999     56.834300000000006
H      51.101049999999987     51.763900000000000     54.508900000000011
H      47.388549999999995     50.865699999999990     52.957900000000009
H      45.833349999999996     46.446199999999997     50.184400000000011
H      51.515549999999990     43.945099999999989     54.352000000000004
H      52.415449999999993     43.517400000000002     52.934800000000010
H      53.524249999999995     44.634999999999998     55.235900000000001
H      47.837750000000000     42.709699999999991     50.891000000000005
H      46.151349999999994     43.941399999999994     49.547900000000006
H      47.750149999999991     50.300400000000003     47.971500000000006
H      47.388549999999995     48.048999999999999     48.760700000000007
H      51.435449999999989     42.734800000000000     52.336600000000004
H      54.315949999999987     46.253300000000003     55.648900000000005
H      55.041249999999991     46.737400000000001     54.325800000000001
H      52.591949999999997     51.234499999999990     57.067300000000003
H      50.829049999999995     51.723099999999995     57.777699999999996
H      47.570949999999996     40.384799999999991     38.908600000000007
H      50.702249999999992     56.182200000000002     52.339800000000011
H      55.300049999999999     47.898599999999995     55.884799999999998
H      48.258849999999995     52.691999999999993     49.074400000000011
H      50.474049999999991     50.500899999999987     52.734300000000005
H      49.592449999999999     51.735999999999997     55.914800000000007
H      48.896149999999992     55.345099999999988     49.935200000000009
H      51.669749999999993     52.655299999999990     53.359400000000008
H      51.043549999999996     55.151499999999992     54.072899999999997
H      45.881749999999997     54.313299999999991     50.472999999999999
H      45.055749999999989     52.063399999999994     48.930800000000005
H      45.811149999999998     50.035699999999999     48.013300000000008
H      41.580749999999995     46.785800000000002     55.234800000000007
H      41.408949999999990     44.252000000000002     55.912900000000008
H      45.233249999999998     51.143599999999999     54.192200000000000
H      44.474549999999994     48.140499999999996     54.713200000000001
H      42.949050000000000     49.112000000000002     54.581299999999999
H      44.440049999999999     49.942499999999995     47.168400000000005
H      46.054349999999999     44.867600000000003     44.308300000000003
H      47.256050000000002     46.907599999999995     44.457000000000008
H      47.284049999999993     48.198799999999999     46.633000000000010
H      43.006850000000000     43.332299999999996     48.092800000000011
H      40.929850000000002     43.335400000000000     49.132800000000003
H      41.224049999999991     42.791499999999992     54.114500000000007
H      40.699950000000001     42.486499999999999     51.326600000000006
H      48.989049999999992     43.351599999999998     38.821600000000004
H      45.833349999999996     39.817799999999998     39.883500000000005
H      47.203749999999999     42.976399999999991     42.485400000000006
H      47.000149999999991     41.728699999999996     44.036600000000007
H      49.754749999999987     41.094000000000001     41.118200000000002
H      44.415449999999993     41.767099999999992     42.954700000000003
H      44.714349999999996     43.566899999999997     42.674000000000007
N      48.022949999999994     52.618299999999998     53.685200000000002
N      46.973349999999996     42.756599999999999     38.222300000000004
O      50.605749999999986     42.946899999999992     51.910800000000009
O      45.892449999999997     40.045699999999989     42.088000000000008
O      49.658849999999987     41.854599999999998     40.931500000000007
O      45.161749999999998     41.501799999999996     38.340200000000010
S      44.715850000000003     42.908499999999997     45.131500000000003
