25

C      45.497299999999996     46.403849999999998     48.672299999999993
C      47.452799999999996     49.715450000000004     47.165900000000001
C      47.638800000000003     50.701750000000004     48.353900000000003
C      47.642399999999995     48.312250000000006     47.209699999999998
C      46.769999999999996     45.475750000000005     48.045900000000003
C      48.282300000000006     47.510249999999999     48.191600000000001
C      48.047399999999996     46.050950000000000     48.379500000000000
C      49.492899999999992     47.981750000000005     48.790200000000006
C      49.097399999999993     45.430050000000008     49.123299999999993
C      50.600899999999996     47.251550000000009     49.191000000000010
C      50.430700000000002     45.831850000000003     49.234500000000004
H      45.880099999999999     46.245450000000005     49.884000000000000
H      44.505200000000002     45.905250000000009     48.461599999999997
H      45.156800000000004     47.482849999999999     48.240200000000002
H      48.660399999999996     51.044449999999998     48.611200000000004
H      47.295399999999987     49.954450000000008     46.116000000000000
H      46.785200000000003     50.639750000000006     49.122500000000002
H      47.329300000000003     51.651449999999997     47.701700000000002
H      47.070499999999996     47.630350000000007     46.431800000000003
H      46.682899999999989     45.571750000000009     46.789700000000003
H      46.569999999999993     44.370649999999998     48.231999999999999
H      49.607600000000005     49.137550000000005     48.857199999999999
H      49.034999999999997     44.348550000000003     49.226099999999995
H      51.494799999999998     47.911650000000009     49.334800000000008
H      51.223899999999986     45.157250000000005     49.737000000000002
