6

C      47.318999999999996     48.165095999999984     47.972299999999997
C      48.434700000000007     47.745795999999984     48.338600000000000
H      46.784199999999998     47.679795999999996     46.935000000000002
H      46.873100000000001     49.193104000000005     48.312500000000000
H      48.507099999999994     46.806895999999995     47.619299999999996
H      49.215800000000002     48.172595999999984     49.064999999999998
