5

C      47.748799999999989     48.062599999999996     47.721199999999989
H      47.317899999999995     48.971800000000002     47.348599999999998
H      48.682100000000005     48.188199999999995     47.252600000000001
H      47.942600000000013     48.283699999999996     48.747399999999999
H      47.339900000000000     47.028199999999998     47.702500000000001
