18

C      50.599699999999984     47.834299999999999     47.937949999999987
C      50.083899999999993     46.359700000000004     48.167549999999999
C      49.683099999999989     48.962299999999999     47.591549999999991
C      48.642499999999991     46.170699999999997     47.935149999999993
C      48.404599999999995     48.728999999999999     48.244449999999993
C      47.798699999999990     47.244299999999996     48.120449999999984
C      47.678399999999989     49.817700000000002     48.431749999999994
C      46.377299999999998     47.151899999999998     48.359149999999993
C      46.286699999999989     49.650800000000004     48.735449999999993
C      45.657099999999993     48.345599999999990     48.767549999999993
H      51.300300000000000     48.396000000000001     48.563549999999985
H      50.630499999999991     45.627899999999997     48.756149999999984
H      50.180299999999995     49.766099999999994     47.147749999999995
H      48.202499999999993     50.843499999999992     48.222049999999989
H      47.887799999999991     45.156500000000008     47.909949999999995
H      45.434599999999996     50.238399999999999     48.852250000000005
H      45.822799999999994     46.123000000000005     48.159049999999986
H      44.699700000000000     48.111500000000007     48.807749999999992
