50

C      46.493269999999981     48.189650000000000     48.127304999999993
C      46.684769999999993     49.367650000000005     47.328105000000001
C      50.900140000000000     46.928750000000001     48.600104999999992
C      51.484340000000010     48.145850000000003     48.020305000000000
C      47.406590000000001     47.610950000000010     49.009004999999995
C      48.065900999999997     49.520850000000003     47.173205000000003
C      49.654829999999997     46.679250000000003     49.203804999999996
C      50.529760000000003     49.293550000000003     47.952404999999992
C      48.740910000000000     47.617550000000001     48.651104999999994
C      49.174289999999992     48.863050000000008     47.764704999999999
C      45.100069999999995     47.715450000000011     48.212704999999993
C      44.136669999999988     48.492049999999999     47.417304999999992
C      44.273269999999989     49.485350000000004     46.520805000000003
C      45.587969999999991     50.174950000000003     46.633305000000000
C      51.881380000000000     45.817450000000001     48.733105000000002
C      53.273499999999999     45.874650000000010     48.370804999999997
C      53.681730000000002     47.175249999999998     47.985605000000000
C      52.882910000000003     48.275849999999998     48.419504999999994
C      44.429769999999998     46.806450000000005     49.187804999999990
C      43.163669999999989     46.387950000000011     49.208305000000003
C      42.070569999999996     46.999250000000011     48.488504999999996
C      42.681769999999993     47.877850000000002     47.458104999999996
C      45.537869999999991     46.089649999999999     50.054907000000007
C      46.909369999999988     46.484950000000005     49.892208000000004
C      47.862620999999997     45.522650000000006     50.149789000000006
C      49.253889999999991     45.394650000000006     49.804823000000006
C      51.432830000000003     44.589950000000009     49.365865100000001
C      50.229039999999998     44.345250000000000     49.830416000000007
C      48.392910000000001     50.678649999999998     46.250205000000001
C      47.278503800000003     51.802250000000008     46.851604999999999
C      45.937769999999993     51.540250000000007     46.294104999999995
C      47.556239999999995     51.734950000000005     48.388304999999995
H      50.782710000000002     50.254950000000001     47.911704999999991
H      43.461169999999989     50.072250000000004     46.174204999999994
H      53.873069999999991     45.170750000000005     48.424604999999993
H      54.781230000000001     47.308650000000007     47.719805000000001
H      53.544170000000001     49.220150000000011     48.452404999999992
H      43.210469999999994     45.694750000000006     49.900025000000007
H      41.218769999999999     46.477449999999997     48.416504999999994
H      42.045469999999987     48.531050000000000     46.583705000000002
H      47.732238000000002     44.688549999999999     50.782095000000005
H      52.261099999999992     43.972450000000002     49.550084000000005
H      49.947620000000001     43.293450000000000     50.133603000000001
H      49.187590000000000     51.140350000000005     46.587704999999993
H      47.665712999999990     52.706550000000000     46.504204999999992
H      45.282269999999990     52.447850000000010     46.262104999999998
H      48.433540000000001     50.524050000000010     45.217904999999995
H      46.616569999999989     51.856749999999998     49.048605000000002
O      48.462359999999997     51.507950000000001     49.125804999999993
O      45.486969999999992     44.998350000000009     50.571125000000002
