8

C      48.109499999999990     47.225249999999988     47.255149999999993
C      47.966700000000003     48.482049999999994     48.230750000000000
H      49.150199999999998     46.945749999999997     46.777349999999998
H      46.849800000000002     48.466249999999995     48.544049999999999
H      47.968199999999996     49.696549999999995     47.848550000000003
H      48.321700000000007     48.259849999999993     49.222650000000002
H      48.251800000000003     46.303450000000005     48.067250000000001
H      47.160499999999999     46.677649999999993     47.136750000000006
