22

C      46.668399999999991     45.951999999999998     47.702699999999993
C      47.157199999999996     46.667399999999986     46.365000000000002
C      47.771200000000000     46.151600000000002     48.602200000000003
C      47.709700000000005     48.129999999999995     46.289899999999996
C      48.640999999999998     47.450999999999993     48.572499999999998
C      48.813499999999998     48.132099999999994     47.432200000000002
C      48.707400000000000     48.238099999999989     49.759200000000000
C      49.387099999999997     49.418000000000006     47.272399999999998
C      49.291400000000003     49.524600000000007     49.762999999999998
C      49.769500000000001     50.166300000000007     48.505000000000003
H      46.355800000000009     44.943699999999993     47.408300000000004
H      45.593600000000002     46.286699999999996     47.760300000000008
H      46.233399999999996     46.551199999999994     45.759400000000007
H      47.751500000000000     45.816400000000002     45.893800000000006
H      48.440700000000000     45.207599999999999     48.264900000000004
H      47.297000000000004     45.875199999999992     49.553199999999997
H      46.767199999999995     48.762400000000000     46.358399999999996
H      48.549600000000005     48.342199999999991     45.270800000000001
H      48.123700000000007     47.774100000000004     50.671399999999998
H      48.868900000000004     49.917100000000005     46.463400000000000
H      49.982300000000002     49.809999999999988     50.729199999999999
H      50.406399999999998     51.056300000000007     48.596600000000002
