16

C      49.515379999999986     49.688699999999990     48.044349999999994
C      49.124619999999993     49.046399999999998     46.757149999999996
C      49.140449999999994     48.931199999999997     49.265949999999997
C      48.539099999999998     47.709499999999998     47.424149999999997
C      48.486929999999994     47.739699999999999     48.791750000000000
C      47.907739999999997     46.843299999999999     46.487049999999996
C      47.384829999999994     46.872700000000002     49.218049999999998
C      46.775169999999996     46.092399999999998     46.995849999999997
C      46.572869999999995     46.141500000000001     48.437249999999999
H      46.107759999999999     46.241500000000002     46.214849999999998
H      50.167580000000001     50.655099999999997     48.115749999999998
H      49.043469999999999     49.584899999999998     45.912050000000001
H      49.839579999999998     49.217199999999998     50.159549999999989
H      48.386599999999994     46.937599999999996     45.647250000000000
H      47.235429999999994     46.823399999999999     50.352750000000000
H      45.832419999999999     45.344900000000003     48.816850000000002
