21

C      49.804099999999984     47.446299999999994     44.799299999999995
C      49.481600000000000     48.365400000000001     45.973799999999997
C      46.295499999999997     47.432300000000005     48.579400000000000
C      48.373499999999993     47.988000000000007     46.593699999999998
C      47.054699999999997     48.349400000000010     48.788499999999999
C      48.196100000000001     48.598000000000006     48.091800000000006
C      47.048699999999997     48.645100000000006     50.224900000000005
C      49.451799999999992     49.019600000000004     48.689499999999995
C      48.227199999999996     48.775900000000000     50.899699999999996
C      49.302300000000002     49.153799999999997     50.067999999999998
H      48.794200000000004     47.082100000000004     44.291800000000002
H      50.408400000000000     46.548700000000004     45.245400000000004
H      50.337099999999992     48.091200000000008     44.092900000000000
H      46.771499999999996     46.543799999999997     48.373100000000008
H      45.518299999999996     47.385799999999996     47.709299999999999
H      50.240799999999993     49.151800000000001     46.497199999999992
H      47.867599999999996     47.455800000000004     45.860599999999998
H      46.089999999999996     48.673999999999999     50.804900000000004
H      50.481700000000004     48.716200000000008     48.392799999999994
H      48.335700000000003     48.685800000000008     51.907100000000000
H      50.089399999999998     49.456200000000003     50.467600000000004
