11

C      48.416554999999995     47.748149999999995     47.017199999999988
C      47.903154999999998     48.158149999999999     48.247400000000013
C      47.374265000000001     46.993550000000006     49.041399999999996
C      47.819055000000006     49.242449999999998     48.650300000000001
H      48.031055000000002     48.488250000000001     46.229699999999994
H      46.569945000000004     47.282350000000001     49.759399999999999
H      49.430054999999996     47.268350000000005     47.239999999999995
H      47.132485000000003     46.307949999999998     48.414800000000000
H      48.207055000000004     46.380650000000003     49.577200000000005
H      47.476385000000001     46.975950000000005     46.327500000000001
H      47.831055000000006     49.692050000000002     49.770300000000006
