35

C      49.037999999999990     48.185834999999997     48.360899999999994
C      48.139899999999997     51.028364999999994     49.655400000000000
C      49.575299999999999     49.627804999999995     47.807899999999997
C      49.221899999999991     50.686324999999997     48.588499999999996
C      50.571899999999999     49.600134999999995     46.871699999999997
C      49.902100000000004     52.005674999999997     48.350200000000001
C      50.985799999999998     50.821105000000003     46.476399999999998
C      50.784400000000005     51.942414999999997     47.228299999999997
C      46.987299999999998     47.541364999999999     47.103299999999997
C      50.190199999999990     47.391244999999998     48.792699999999996
C      48.446500000000000     47.425905000000000     47.135500000000000
C      49.776499999999999     46.091355000000007     48.259999999999998
C      48.739899999999999     46.023055000000014     47.203499999999998
C      50.382700000000000     44.967155000000005     48.700800000000001
C      49.151199999999989     45.009354999999999     46.195999999999998
C      50.543099999999995     43.828755000000015     47.789800000000000
C      49.716600000000000     43.834555000000009     46.542099999999998
H      44.484099999999998     46.886874000000006     46.271099999999997
H      47.815899999999999     52.071614999999994     49.829299999999996
H      47.958699999999993     48.233094999999992     48.929099999999998
H      47.184899999999999     50.592555000000004     49.542599999999993
H      48.491999999999997     50.653464999999997     50.632100000000001
H      50.747799999999998     48.692785000000001     46.016900000000000
H      49.942599999999999     52.581444999999988     49.213999999999999
H      51.515900000000002     50.806654999999992     45.572299999999998
H      50.919100000000000     52.978645000000000     46.902699999999996
H      46.390199999999993     47.345725000000002     47.886399999999995
H      46.444999999999993     48.674705000000003     47.028999999999996
H      51.128199999999993     47.766305000000003     49.243800000000000
H      49.119099999999989     47.885985000000005     46.255099999999999
H      51.153700000000001     45.274054999999990     49.523499999999999
H      48.412099999999995     45.164355000000015     45.367899999999999
H      50.798899999999989     43.021355000000000     48.333500000000001
H      49.744599999999991     43.147755000000004     45.747599999999998
S      45.713799999999999     46.225391000000002     45.955599999999997
