22

C      45.999099999999991     47.084649999999996     49.126599999999989
C      46.163899999999998     45.860549999999996     48.505200000000002
C      47.452700000000007     47.583149999999996     49.579500000000003
C      47.292100000000005     49.982650000000000     47.284900000000000
C      48.436300000000003     48.041549999999994     48.573599999999999
C      48.292299999999997     48.796450000000000     47.288300000000000
C      49.778999999999996     47.610949999999995     48.838799999999999
C      49.043199999999999     48.281150000000004     46.265700000000002
C      50.209800000000001     46.899149999999999     47.642699999999998
C      49.883099999999999     47.154850000000003     46.378700000000002
H      44.865600000000001     47.596250000000005     49.205199999999991
H      47.163300000000000     45.349150000000002     48.503900000000002
H      45.640200000000000     45.072750000000006     47.979100000000003
H      46.734899999999996     50.047750000000001     46.351700000000001
H      47.969099999999997     46.734050000000003     49.985100000000003
H      47.560800000000000     48.113449999999993     50.718699999999998
H      46.598700000000008     49.984249999999996     48.089799999999997
H      50.225400000000008     47.253149999999998     49.825599999999994
H      48.737200000000001     48.800750000000001     45.281300000000002
H      51.134399999999999     46.381549999999997     47.640700000000002
H      50.422699999999999     46.876150000000003     45.511499999999998
H      47.816100000000006     50.927249999999994     47.241000000000000
