17

C      46.903699999999994     50.241649999999993     48.241149999999990
C      49.556500000000000     49.204650000000001     47.572749999999992
C      47.384500000000003     48.792449999999988     47.987549999999992
C      48.741399999999999     48.353749999999991     47.755949999999991
C      46.664500000000004     47.758650000000003     48.564050000000002
C      49.300699999999999     47.083249999999992     48.111649999999990
C      47.017299999999999     46.523949999999999     48.655949999999997
C      48.331099999999999     46.111450000000005     48.494549999999997
H      47.639700000000005     50.884749999999997     47.799450000000000
H      47.100800000000000     50.761049999999997     49.340550000000000
H      45.756500000000003     50.372749999999996     48.138050000000000
H      50.142099999999999     49.419249999999991     48.361749999999994
H      50.111199999999997     49.208249999999992     46.659450000000000
H      45.691500000000005     47.874650000000003     49.187049999999992
H      50.308499999999995     47.188249999999996     48.520249999999997
H      46.277100000000004     45.700949999999992     49.110149999999997
H      48.769300000000001     45.115250000000003     48.782649999999997
