5

C      48.166249999999991     48.429399999999994     48.032399999999988
H      47.075250000000004     48.648600000000002     47.841600000000000
H      48.924749999999996     48.645099999999999     48.827900000000000
H      48.250850000000007     47.351399999999998     47.927000000000007
H      48.832150000000006     48.579800000000006     47.172100000000000
