6

C      48.109449999999995     47.473399999999991     47.261399999999995
C      48.053649999999998     48.191000000000003     48.464600000000004
H      48.494449999999993     47.879799999999996     46.300600000000003
H      47.351250000000000     46.738399999999999     47.179100000000005
H      47.809249999999999     47.809300000000000     49.699399999999997
H      48.648750000000000     49.261600000000001     48.067499999999995
