40

C      49.314899999999994     48.695599999999992     45.750649999999986
C      44.605699999999999     48.923500000000004     47.119549999999990
C      44.434799999999996     47.691800000000001     49.584249999999997
C      44.528800000000004     47.399600000000007     47.013449999999992
C      44.299399999999991     46.757200000000012     48.387850000000000
C      44.706199999999995     46.551300000000012     45.886649999999989
C      44.745800000000003     45.426100000000005     48.519749999999988
C      44.693699999999993     45.018799999999999     46.021450000000002
C      44.470799999999997     44.589800000000011     47.368150000000000
C      51.652799999999999     48.762100000000004     48.640249999999995
C      45.008799999999994     52.112400000000008     50.038849999999996
C      51.068099999999987     48.438100000000006     47.299449999999993
C      45.928899999999999     51.151300000000006     49.862949999999998
C      44.690100000000001     49.939200000000000     48.191249999999997
C      45.883600000000001     50.025600000000011     48.948749999999990
C      49.809699999999992     48.995400000000004     47.195650000000001
C      47.028999999999996     49.422600000000003     48.227750000000000
C      49.402799999999999     49.431300000000007     48.441749999999999
C      48.129099999999994     50.199700000000007     48.336849999999998
H      48.824100000000001     47.630900000000011     45.689049999999995
H      50.100200000000001     48.720400000000012     44.988450000000000
H      48.586500000000001     49.724100000000007     45.256949999999989
H      44.682099999999991     49.525800000000004     46.295049999999989
H      43.679500000000004     48.418700000000001     49.590350000000001
H      45.534700000000001     47.921400000000006     49.568849999999998
H      44.043700000000001     46.873200000000011     50.408549999999991
H      44.996600000000001     47.093800000000002     45.102149999999995
H      44.778599999999997     45.098800000000011     49.504750000000001
H      44.469200000000001     44.285900000000012     45.356949999999998
H      44.349899999999991     43.482900000000001     47.661249999999995
H      52.320499999999996     49.693600000000004     48.746849999999995
H      51.903899999999993     48.134000000000000     49.490449999999996
H      45.249399999999994     52.517099999999999     51.011550000000000
H      44.065200000000004     52.154900000000012     49.435649999999995
H      51.271999999999991     47.738700000000009     46.738050000000001
H      43.910799999999995     50.424600000000012     48.554849999999988
H      46.837699999999998     51.436900000000009     50.716249999999988
H      46.926299999999998     48.470800000000011     48.146549999999991
H      49.821299999999994     48.969000000000008     49.410950000000000
H      48.432099999999991     51.194500000000005     48.767949999999999
