5

C      47.806549999999994     48.116749999999996     48.331199999999995
H      47.063350000000000     48.917549999999999     48.828599999999994
H      47.777150000000006     47.993049999999990     47.171400000000006
H      48.936650000000000     48.455249999999999     48.233300000000000
H      47.659649999999999     47.082450000000001     48.589599999999990
