6

C      48.282749999999993     48.326349999999991     48.630350000000000
C      47.870050000000006     47.821949999999994     47.349249999999998
H      48.789450000000002     49.234349999999999     48.400649999999999
H      48.332450000000009     47.763649999999998     49.504249999999999
H      47.210549999999998     46.765650000000001     47.667650000000009
H      48.072050000000004     48.300549999999994     46.495750000000001
