19

C      50.149949999999990     49.966999999999992     48.242049999999992
C      49.735249999999994     48.736500000000007     47.740849999999988
C      49.007350000000002     45.768400000000000     47.886649999999996
C      48.328649999999996     48.373800000000003     48.137149999999998
C      48.015150000000006     46.941699999999997     48.017049999999990
C      47.316549999999992     49.250799999999998     48.670249999999989
C      46.708150000000003     46.559800000000003     47.715150000000001
C      45.981549999999999     48.912800000000004     48.566049999999997
C      45.649850000000001     47.646299999999997     48.080849999999991
H      49.092050000000000     45.699700000000000     46.763950000000001
H      51.244749999999996     50.151499999999999     48.110049999999994
H      50.554250000000010     47.985200000000006     47.618949999999991
H      49.852750000000000     46.171300000000002     48.472449999999988
H      48.127549999999999     45.161000000000001     48.379749999999994
H      47.449050000000000     50.131700000000009     49.236049999999999
H      46.397049999999993     45.579000000000001     47.523449999999990
H      45.265150000000006     49.539500000000004     49.186649999999993
H      44.755250000000004     47.249499999999998     47.884849999999993
H      49.391350000000003     50.838999999999999     48.317349999999998
