6

C      48.125099999999996     47.255049999999997     48.293249999999993
C      47.905000000000001     48.589549999999988     48.053350000000002
H      48.631500000000003     46.615750000000006     48.942250000000001
H      47.535100000000000     46.459350000000001     47.663049999999998
H      48.044899999999998     49.540649999999999     48.893950000000004
H      47.368499999999997     48.639150000000001     47.057749999999999
