24

C      47.638099999999994     44.670499999999990     48.362099999999998
C      48.525699999999993     49.858000000000004     48.890099999999990
C      46.749699999999997     47.405900000000003     49.189000000000007
C      48.336700000000000     48.593900000000005     47.999099999999999
C      47.503099999999996     47.525000000000006     48.253000000000000
C      49.296399999999998     48.701200000000000     46.962699999999998
C      47.656500000000001     46.061999999999998     47.601299999999995
C      49.319099999999999     47.445899999999995     46.191299999999998
C      48.895499999999991     46.223100000000002     46.778099999999995
C      49.754799999999996     50.986400000000003     48.700900000000004
H      48.711800000000004     44.184699999999992     48.408599999999993
H      46.797000000000004     44.008399999999995     48.256299999999996
H      47.484199999999994     44.695599999999999     49.456299999999999
H      48.389299999999999     49.388500000000008     49.930800000000005
H      47.620200000000004     50.608300000000000     48.801199999999994
H      47.169400000000003     47.462200000000010     50.379499999999993
H      45.611799999999995     46.684600000000003     49.387099999999990
H      49.934400000000004     49.534199999999998     47.100200000000001
H      46.639999999999993     46.432100000000005     47.183999999999997
H      50.358899999999998     47.414700000000011     45.620500000000007
H      49.318499999999993     45.258400000000009     46.478399999999993
H      49.618599999999994     51.991600000000005     49.063599999999994
H      49.875399999999992     51.559699999999992     47.632000000000005
H      50.388200000000005     51.080200000000005     49.664800000000000
