6

C      48.067327499999983     47.979749999999996     47.416279999999993
C      48.427135500000006     48.069050000000004     48.750380000000007
H      47.116727499999996     47.016750000000002     46.542630000000003
H      47.956927499999992     48.537149999999997     46.602719999999998
H      47.879327500000002     47.306449999999998     49.457369999999997
H      48.883272500000004     48.983249999999998     48.899100000000004
