18

C      47.971599999999988     48.468349999999994     48.696949999999987
C      47.110100000000003     49.497249999999994     48.341249999999995
C      46.734800000000007     49.762550000000005     47.058850000000000
C      47.482900000000001     49.396650000000008     46.019250000000007
C      48.263199999999998     48.250050000000002     46.209250000000004
C      48.578299999999999     47.910049999999998     47.567550000000004
C      48.589200000000005     48.268250000000002     50.113750000000003
C      49.095900000000000     46.397550000000003     47.439150000000005
H      46.902200000000008     49.935549999999999     49.361250000000005
H      45.764600000000002     50.216149999999999     46.962049999999998
H      47.436499999999995     49.645949999999999     44.929049999999997
H      48.727599999999995     47.997450000000001     45.408250000000002
H      49.225200000000001     47.358449999999998     50.163550000000008
H      48.836100000000002     49.352950000000007     50.402650000000001
H      50.235399999999998     46.155650000000001     47.636749999999999
H      47.677300000000002     48.324249999999999     51.070950000000003
H      48.724000000000004     45.783850000000001     46.718449999999997
H      48.201400000000007     45.955249999999999     48.244650000000000
