68

C      39.928249999999984     52.863849999999992     50.063049999999990
C      42.604349999999997     48.728850000000001     48.666550000000001
C      42.062249999999992     47.350350000000006     48.444450000000003
C      47.365449999999996     46.319650000000003     48.320049999999995
C      46.528649999999992     45.149149999999999     48.052850000000007
C      43.987650000000002     48.730649999999997     49.015850000000000
C      42.844149999999992     46.254950000000001     48.348849999999999
C      46.356749999999998     47.386650000000003     48.571550000000002
C      45.161249999999995     45.188749999999999     48.346950000000007
C      44.830649999999991     47.558050000000001     48.903950000000009
C      44.252649999999988     46.241849999999999     48.673150000000007
C      42.258249999999990     49.837350000000001     49.479849999999999
C      40.842849999999984     49.592550000000003     49.912250000000000
C      40.192849999999993     48.584850000000003     48.963250000000002
C      40.564449999999994     47.351849999999999     48.464849999999998
C      48.696649999999991     46.268850000000000     47.976450000000000
C      49.197249999999997     45.041250000000005     47.328590000000005
C      48.418049999999994     43.821050000000000     47.571950000000001
C      47.142749999999992     43.796149999999997     48.092749999999995
C      42.753149999999998     51.135450000000006     49.932749999999999
C      42.105349999999987     52.274150000000006     50.652250000000009
C      40.753049999999988     51.992550000000001     51.033249999999995
C      40.177049999999994     50.637349999999998     50.456950000000006
C      44.067649999999986     51.121850000000002     49.688649999999996
C      44.806349999999995     49.905349999999999     49.429749999999999
C      46.192049999999995     49.842250000000000     49.300449999999998
C      46.953649999999996     48.609349999999999     49.102649999999997
C      49.324149999999989     47.563350000000000     48.246250000000003
C      48.419849999999997     48.641450000000006     48.789050000000003
C      50.520149999999994     45.035750000000000     46.939290000000000
C      42.568449999999999     53.392350000000000     50.849649999999997
C      53.270150000000001     44.121850000000002     47.128070000000008
C      53.872049999999994     43.553750000000001     46.071140000000000
C      54.768349999999998     44.321249999999999     45.237390000000005
C      55.011949999999985     45.605750000000000     45.826020000000000
C      54.233049999999992     46.176850000000002     46.865830000000003
C      53.519350000000003     45.345450000000000     47.750349999999997
C      53.027749999999997     42.313549999999999     45.486100000000008
C      56.033149999999992     46.498550000000002     45.228650000000002
C      55.182450000000003     47.674650000000000     44.697010000000006
H      40.148649999999996     52.627750000000006     48.948450000000008
H      38.855649999999997     52.607250000000001     49.700749999999999
H      40.345349999999996     53.796350000000004     50.293549999999996
H      44.971649999999997     51.774650000000001     49.630049999999997
H      42.358549999999994     45.255850000000002     48.090649999999997
H      44.563549999999992     44.205649999999999     48.363450000000000
H      39.176749999999991     49.143150000000006     48.915750000000003
H      39.796949999999995     46.564250000000001     48.159750000000003
H      49.043449999999993     42.955249999999999     47.774950000000004
H      46.716849999999994     42.798050000000003     48.408349999999999
H      40.991049999999994     52.197850000000003     52.214950000000002
H      39.260749999999994     50.553550000000001     50.502750000000006
H      42.115649999999988     54.124949999999998     51.658450000000002
H      47.139049999999997     50.588250000000002     49.481850000000009
H      50.443349999999995     47.785250000000005     48.163449999999997
H      48.591949999999997     49.755449999999996     48.533650000000009
H      51.131449999999994     46.011250000000004     46.664630000000002
H      42.555449999999993     54.164450000000002     50.179750000000013
H      54.907949999999985     44.004550000000002     44.076210000000003
H      54.203850000000003     47.120049999999999     47.275509999999997
H      52.865650000000002     45.637550000000005     48.531050000000008
H      52.340649999999997     41.835549999999998     46.216239999999999
H      54.334949999999992     47.608450000000005     43.785049999999998
H      55.361549999999994     48.574350000000003     45.226550000000003
H      56.030649999999994     47.786250000000003     43.842299999999994
O      53.219349999999991     41.897449999999999     44.358130000000003
O      57.144350000000003     46.054050000000004     44.959299999999999
S      51.470549999999996     43.808450000000001     47.675950000000000
