5

C      47.686249999999987     48.349199999999996     47.836999999999989
H      47.753950000000003     48.526200000000010     49.019900000000000
H      48.733850000000004     48.288100000000007     47.470800000000004
H      47.266149999999996     47.146200000000000     47.767999999999994
H      47.282250000000005     48.853800000000000     46.980100000000000
