39

C      45.277299999999997     47.090199999999996     48.119450000000001
C      45.437400000000004     48.276499999999992     47.046450000000007
C      49.650900000000000     48.208400000000005     49.400250000000000
C      49.343300000000006     49.474100000000000     49.028649999999999
C      46.157199999999996     46.871800000000000     49.231150000000000
C      46.183399999999999     49.333700000000000     47.552149999999997
C      48.467800000000004     47.561399999999999     49.915549999999996
C      48.156799999999997     49.996999999999993     48.605550000000008
C      47.201200000000007     47.880900000000004     49.527950000000004
C      47.027099999999997     49.183100000000003     48.759850000000000
C      44.236600000000003     46.187700000000000     48.039850000000001
C      43.676099999999998     45.977499999999999     46.661249999999995
C      43.725800000000000     46.960900000000002     45.734250000000003
C      44.627000000000002     48.169999999999995     46.015749999999997
C      50.856900000000003     47.671900000000001     49.819649999999996
C      52.064500000000002     48.425800000000002     49.378749999999997
C      51.945200000000007     49.904000000000003     48.909750000000003
C      50.608399999999996     50.193899999999992     48.565349999999995
C      46.004300000000008     45.707100000000004     49.998850000000004
C      44.655200000000001     45.054899999999996     50.255750000000006
C      43.839000000000006     45.424799999999998     49.130949999999999
C      48.892699999999998     46.139900000000004     49.449449999999999
C      50.700099999999999     50.798999999999999     47.168549999999996
H      51.604700000000001     51.505400000000002     47.344949999999997
H      46.287200000000006     50.073500000000003     46.706649999999996
H      47.912500000000001     51.022600000000004     48.224249999999998
H      42.946199999999997     45.326699999999995     46.478750000000005
H      43.272900000000000     47.021499999999996     44.715950000000007
H      44.830800000000004     49.094199999999994     45.479749999999996
H      50.801400000000008     46.882399999999997     50.582149999999999
H      52.971499999999999     50.190499999999993     48.388350000000003
H      46.945299999999996     45.499099999999991     50.617549999999994
H      44.404800000000002     44.494599999999998     51.284049999999993
H      43.269600000000004     44.593799999999995     48.768450000000001
H      49.045400000000008     45.935899999999997     48.330849999999998
H      51.176899999999996     49.869399999999992     46.507149999999996
H      49.725500000000004     51.250099999999996     47.015450000000001
O      49.377100000000006     45.176799999999993     50.083249999999992
O      53.053800000000003     47.823500000000003     49.617950000000008
