16

C      49.133599999999994     46.473784999999992     47.405499999999996
C      46.815799999999996     46.063584999999996     47.439200000000000
C      48.681500000000000     47.492384999999992     47.785499999999999
C      47.193199999999997     47.496985000000002     47.598500000000001
C      49.478899999999996     48.540284999999990     48.074699999999993
C      46.381399999999999     48.472684999999998     48.300200000000004
C      48.601399999999998     49.639384999999997     48.744299999999996
C      47.188200000000002     49.650484999999996     48.639200000000002
H      49.784300000000002     46.048785000000002     48.278799999999990
H      50.162900000000000     46.527485000000006     46.829300000000003
H      45.727199999999996     45.714945000000000     47.170699999999997
H      47.377899999999997     45.582715000000000     46.561300000000003
H      50.679099999999998     48.340384999999998     48.169899999999998
H      45.320900000000002     48.700785000000003     48.079099999999997
H      49.141499999999994     50.257384999999992     49.438699999999997
H      46.265999999999998     50.417285000000000     48.761600000000001
