6

C      48.221299999999999     47.632449999999992     47.570749999999990
C      47.697299999999998     48.362749999999998     48.591849999999994
H      48.779200000000003     46.645350000000001     47.795450000000002
H      48.020399999999995     48.000949999999996     46.546949999999995
H      47.220799999999997     49.354649999999999     48.399950000000004
H      47.314300000000003     47.848549999999996     49.453050000000005
