5

C      47.684949999999994     48.091549999999998     47.975699999999996
H      48.804050000000004     48.038449999999997     48.060699999999997
H      47.318250000000006     48.681950000000001     48.910499999999999
H      47.195949999999996     47.109750000000005     47.790900000000008
H      47.528350000000003     48.890249999999995     47.089500000000001
