24

C      49.500499999999988     50.368064999999987     48.902799999999999
C      50.117099999999994     46.585305000000005     50.056000000000004
C      49.474100000000007     49.123906999999996     49.550900000000006
C      49.800200000000004     47.979804999999999     49.873100000000001
C      46.890799999999999     46.719405000000002     50.358700000000006
C      49.299300000000002     45.850605000000002     49.248600000000003
C      47.072800000000001     46.909405000000000     48.692000000000000
C      48.379400000000004     46.580505000000016     48.266100000000002
C      46.069900000000004     47.176404999999995     47.903399999999998
C      48.523300000000006     45.929504999999999     46.968700000000005
C      46.406300000000002     46.948904999999989     46.425100000000008
C      47.725999999999999     46.577404999999999     45.960000000000001
H      50.855000000000004     50.510084999999997     48.339700000000001
H      49.076099999999997     51.216994999999990     49.213700000000010
H      49.222499999999997     50.028744999999994     47.757100000000001
H      50.884399999999999     46.183704999999996     50.862900000000003
H      47.788799999999995     46.935605000000017     51.045600000000000
H      46.621200000000002     45.728305000000013     50.510100000000001
H      46.430099999999996     47.495004999999999     50.703000000000010
H      49.235200000000006     44.783005000000010     49.166600000000010
H      45.115600000000001     47.391405000000013     48.198799999999999
H      49.075400000000002     45.061604999999986     46.775900000000000
H      45.615399999999994     46.733904999999993     45.764500000000005
H      47.570499999999996     46.286504999999998     44.954400000000000
