6

C      48.415799999999990     47.481599999999986     48.262799999999991
C      47.560800000000000     48.435299999999998     47.673999999999992
H      48.057099999999998     46.699200000000005     48.954700000000003
H      49.363599999999998     47.931500000000000     48.350199999999987
H      46.636400000000002     48.031200000000013     47.728499999999997
H      47.914499999999997     49.300799999999995     47.045299999999997
