52

C      48.656449999999992     47.161749999999984     47.075949999999999
C      48.516849999999998     46.174050000000001     48.105750000000000
C      50.832450000000001     43.546749999999996     44.955550000000002
C      49.128650000000000     46.781450000000000     45.714350000000003
C      49.230049999999999     44.909349999999996     48.075950000000006
C      50.342149999999997     44.878149999999998     44.589350000000003
C      50.808749999999996     43.678849999999997     46.386150000000001
C      50.067450000000001     45.549050000000001     45.869050000000001
C      50.054850000000009     44.774650000000001     46.905850000000001
C      47.896650000000001     48.386850000000003     47.271349999999998
C      47.335250000000009     48.748950000000001     48.602649999999997
C      47.003750000000004     47.671550000000003     49.417650000000009
C      47.694350000000007     46.298150000000000     49.322050000000004
C      48.112050000000004     49.404850000000003     46.244450000000001
C      47.803649999999998     50.718650000000004     46.613050000000001
C      47.060549999999999     51.175249999999998     47.600149999999999
C      46.591749999999998     50.017749999999999     48.392949999999999
C      48.498150000000003     48.972850000000001     44.858650000000004
C      48.775250000000007     47.529249999999998     44.602750000000000
C      46.185049999999997     47.705849999999991     50.629649999999998
C      46.212650000000004     46.651549999999993     51.575150000000008
C      47.199550000000009     45.635249999999992     51.547650000000004
C      47.567150000000005     45.257449999999999     50.242649999999998
C      49.453350000000007     44.169349999999994     49.269850000000005
C      47.966349999999998     43.825449999999996     50.010850000000005
C      48.802349999999997     46.575849999999996     43.423349999999999
C      49.794450000000005     45.546050000000001     43.457750000000004
C      45.794350000000001     50.128350000000005     49.541250000000005
C      45.449249999999999     49.046849999999999     50.439549999999997
C      45.952249999999999     51.449049999999993     50.287649999999999
C      46.974550000000001     52.024449999999995     50.769950000000009
C      48.304049999999997     49.421150000000004     43.609450000000002
H      51.054250000000003     42.760849999999998     44.420349999999999
H      51.136350000000000     42.972749999999998     47.080650000000006
H      46.943050000000007     52.255450000000003     47.644150000000003
H      45.548949999999998     46.446049999999993     52.367450000000005
H      50.087150000000001     43.245849999999997     48.909250000000000
H      47.004150000000003     43.296349999999997     49.464150000000004
H      50.477150000000002     44.636150000000001     50.035049999999998
H      49.979649999999999     44.930549999999997     42.405050000000003
H      47.860149999999997     46.468049999999998     42.754950000000001
H      44.863650000000000     48.959550000000000     51.497250000000008
H      47.685449999999996     51.265449999999994     51.138850000000005
H      47.147050000000000     53.239150000000002     50.886350000000007
H      47.406550000000003     44.853949999999998     53.594949999999997
H      48.480650000000004     48.590150000000001     42.904949999999999
H      48.548049999999996     52.432549999999999     46.232650000000000
H      47.953650000000003     50.353050000000003     43.379850000000005
H      48.281450000000000     43.170749999999998     51.037450000000007
O      44.886850000000003     51.831250000000004     50.695650000000001
O      47.353749999999998     44.790149999999997     52.588149999999999
O      48.616750000000003     51.440350000000002     45.703950000000006
