6

C      47.902749999999990     48.445749999999990     48.412099999999995
C      48.185249999999996     47.501449999999998     47.484099999999998
H      48.825449999999996     49.180150000000005     48.612500000000004
H      46.928849999999997     48.367849999999997     49.138799999999996
H      47.423749999999998     46.819849999999995     47.196100000000001
H      49.071150000000003     47.322650000000003     46.861200000000004
