21

C      47.109999999999992     50.260048999999995     46.932489999999994
C      46.578900000000004     49.124988999999999     46.273489999999995
C      48.276200000000003     50.018698999999998     47.963089999999994
C      49.748099999999994     47.516498999999996     47.340089999999989
C      47.998699999999999     48.628909000000007     48.608989999999991
C      48.557199999999995     47.342959000000008     48.114189999999994
C      47.056500000000000     48.544748999999996     49.673289999999994
C      47.825900000000004     46.088119000000006     48.239189999999994
C      46.459400000000002     47.241549000000006     49.935989999999990
C      46.876800000000003     45.983318999999995     49.228290000000001
H      47.550399999999996     51.001948999999996     46.336590000000001
H      46.168999999999997     48.429299000000000     47.000489999999999
H      46.434899999999999     48.668109000000001     45.235889999999998
H      48.629199999999997     50.974089000000006     48.625990000000002
H      49.171599999999998     49.513339000000002     47.295289999999994
H      50.350300000000004     46.533648999999997     47.142889999999994
H      50.341899999999995     47.786489000000003     46.458590000000001
H      46.798000000000002     49.440019000000007     50.313589999999991
H      48.397800000000004     45.163902000000007     47.673189999999991
H      45.649699999999996     46.867418999999998     50.764110000000002
H      46.528500000000001     44.998051000000004     48.912289999999999
