45

C      48.254949999999994     46.023699999999991     48.991724999999988
C      47.261050000000004     46.051100000000005     50.011364999999998
C      46.564749999999997     50.377100000000013     47.659185000000008
C      45.701150000000005     50.570800000000006     48.897935000000004
C      47.795549999999999     46.957300000000004     47.847544999999997
C      46.327850000000005     47.033100000000005     50.198275000000010
C      47.011150000000008     49.130799999999994     47.147225000000006
C      45.238950000000003     49.352900000000005     49.492965000000012
C      46.821850000000005     48.030900000000003     48.066474999999997
C      46.034950000000002     48.167500000000004     49.261944999999997
C      49.329950000000004     45.247100000000003     48.828195000000008
C      49.548049999999996     44.289699999999996     49.787905000000009
C      48.663550000000008     44.142099999999999     51.058695000000000
C      47.409349999999996     44.765699999999995     50.854275000000001
C      47.158449999999995     51.545400000000001     47.097954999999999
C      46.949850000000005     52.705300000000008     47.893295000000009
C      45.259650000000001     51.884200000000007     49.225865000000013
C      50.091749999999998     45.202799999999996     47.547595000000001
C      50.870950000000001     44.082899999999995     47.210425000000001
C      51.124450000000003     43.150199999999998     48.262065000000007
C      50.597349999999999     43.244900000000001     49.615555000000015
C      49.705649999999999     46.134000000000015     46.479185000000001
C      48.608350000000009     47.132500000000007     46.752875000000003
C      48.333450000000006     47.813100000000006     45.420025000000010
C      47.665749999999996     48.999100000000013     45.806365000000000
C      45.103549999999998     46.466500000000011     50.816275000000005
C      46.225550000000005     44.462299999999999     51.603395000000006
C      45.042349999999999     45.325599999999994     51.618395000000007
C      48.913450000000005     46.904600000000002     44.436005000000009
C      49.895850000000003     46.078000000000003     45.071505000000002
H      47.030449999999995     53.786500000000004     47.548585000000003
H      48.865749999999998     43.460200000000000     51.913595000000015
H      47.349750000000007     51.388700000000000     45.967354999999998
H      44.348849999999999     52.101800000000011     49.972814999999997
H      51.104050000000008     43.976699999999994     46.170605000000009
H      51.887549999999997     42.421000000000006     48.321534999999997
H      50.852849999999997     42.213499999999996     50.153775000000010
H      50.605049999999999     45.257500000000007     44.608604999999997
H      47.922149999999995     49.975499999999997     45.222805000000008
H      44.320350000000005     47.158700000000010     50.518575000000013
H      46.174550000000004     43.638000000000005     52.238595000000004
H      48.272050000000000     46.542100000000005     43.761404999999996
H      44.473450000000000     49.089100000000002     50.471315000000004
H      44.112450000000003     45.082400000000007     52.126695000000012
N      45.919149999999995     52.880399999999995     48.826035000000005
