21

C      49.997299999999996     45.366804999999992     46.892949999999985
C      48.470599999999997     45.852125000000001     46.894250000000000
C      46.224399999999996     47.425494999999998     48.618549999999999
C      48.431300000000000     47.006965000000001     47.579049999999995
C      47.184099999999994     48.483795000000001     49.045549999999992
C      48.499100000000006     48.209895000000003     48.424049999999994
C      46.658399999999993     49.838194999999999     49.439350000000005
C      49.530399999999993     49.117195000000009     48.503350000000012
C      47.848400000000005     50.566595000000000     49.448049999999995
C      49.257699999999993     50.385795000000002     49.041450000000012
H      49.831300000000006     44.330404999999999     46.915549999999996
H      50.433100000000003     45.793334999999999     47.849949999999993
H      47.600699999999996     45.387855000000002     46.445149999999998
H      45.307899999999997     47.605795000000001     48.971350000000001
H      46.296399999999998     47.334095000000005     47.461750000000009
H      50.692100000000003     45.712994999999992     46.159149999999997
H      45.532299999999999     50.150895000000006     49.287049999999994
H      50.215499999999999     48.944794999999999     47.445050000000009
H      47.768499999999996     51.669595000000001     49.840850000000003
H      50.167499999999997     51.139695000000003     49.266050000000007
H      46.663999999999994     46.633265000000002     49.310050000000004
