20

C      47.444499999999991     46.237599999999986     46.106099999999991
C      48.529699999999998     47.213999999999999     45.615499999999997
C      47.107799999999990     46.401600000000002     47.375000000000000
C      48.227100000000000     48.942799999999991     46.022800000000004
C      47.329599999999992     47.603200000000001     48.057299999999998
C      47.804299999999991     48.922800000000009     47.424499999999995
C      47.227699999999992     47.469999999999999     49.424400000000006
C      48.379799999999996     50.026299999999992     48.280400000000000
C      47.501799999999996     48.581000000000003     50.309600000000003
C      48.312999999999995     49.687899999999999     49.607900000000001
H      47.432499999999997     48.562799999999996     51.425600000000003
H      47.305799999999998     45.291200000000003     45.625199999999992
H      48.837499999999999     47.057199999999995     44.574399999999997
H      49.383900000000004     47.432900000000004     46.325400000000002
H      46.616099999999996     45.676100000000005     47.888800000000003
H      49.049299999999995     49.593100000000007     46.064099999999996
H      47.260199999999990     49.529899999999998     45.640199999999993
H      46.621099999999991     46.530500000000004     49.735200000000006
H      49.081499999999998     50.708799999999997     48.036699999999996
H      48.734800000000000     50.512000000000000     50.294399999999996
