6

C      48.521799999999985     47.718868999999998     47.474899999999998
C      47.416299999999993     48.191949000000001     48.127300000000005
H      49.120800000000003     46.857461000000001     47.273700000000005
H      49.454899999999995     48.311368999999999     47.394199999999998
H      46.806100000000001     49.142538999999999     48.726299999999995
H      46.545100000000005     47.644049000000003     48.141000000000005
