6

C      48.291649999999997     47.561749999999996     47.294949999999993
C      47.740150000000000     48.168650000000000     48.516149999999996
H      48.337649999999996     48.110950000000003     46.470950000000002
H      49.266750000000002     47.259450000000001     47.371449999999996
H      47.710849999999994     47.727550000000008     49.529049999999998
H      46.733249999999998     48.740549999999999     48.346149999999994
