6

C      48.172749999999994     47.672499999999992     47.097754999999992
H      48.835050000000003     46.956400000000002     46.709305000000001
H      47.134650000000001     47.226700000000008     47.157155000000003
H      48.115749999999998     48.539699999999996     46.330704999999995
H      48.098949999999995     49.043599999999998     49.669295000000005
S      48.865349999999999     48.112000000000009     48.955465000000004
