20

C      48.058699999999988     50.234299999999990     49.189200000000000
C      49.368700000000004     49.970499999999994     49.271599999999992
C      47.070099999999996     49.762799999999999     48.113500000000002
C      50.083800000000011     49.023499999999999     48.259900000000002
C      47.472399999999993     48.303899999999999     47.823400000000007
C      48.905299999999997     48.179799999999993     47.710999999999999
C      46.364699999999999     47.508599999999994     47.129100000000008
C      49.237400000000008     46.979899999999994     46.914200000000008
C      46.858300000000000     46.343299999999999     46.530900000000003
C      48.226700000000008     46.018499999999996     46.832499999999996
H      47.476900000000001     50.767000000000003     49.909500000000008
H      50.009300000000010     50.294800000000002     50.205299999999994
H      47.241500000000002     50.313899999999997     47.188800000000001
H      46.108499999999992     49.813099999999999     48.708300000000008
H      50.624899999999997     48.466199999999994     48.843800000000002
H      50.828600000000009     49.413499999999999     47.667100000000005
H      45.171399999999991     47.870199999999997     47.063500000000005
H      50.289500000000004     46.586499999999994     46.869799999999998
H      46.132800000000003     45.771599999999999     45.794700000000006
H      48.792099999999991     45.232999999999997     46.406900000000007
