16

C      48.955349999999996     47.033199999999994     49.292068999999984
C      46.762850000000007     49.192100000000003     49.831618999999996
C      48.198150000000005     47.509800000000006     48.472608999999991
C      47.354549999999996     48.720400000000005     48.642418999999997
C      48.303950000000007     46.960000000000001     47.198788999999998
C      46.923949999999998     49.413300000000000     47.377428999999992
C      47.945150000000005     47.899999999999999     46.083058999999992
C      47.193450000000006     48.975700000000003     46.104408999999997
H      48.179549999999999     46.472200000000001     50.240598999999996
H      50.105849999999997     46.757500000000000     49.236378999999992
H      46.739350000000009     48.779000000000003     50.869069000000003
H      45.894150000000003     49.998200000000004     49.563538999999984
H      48.144750000000009     45.862699999999997     47.005558999999991
H      46.138050000000000     50.137300000000003     47.238558999999995
H      48.161650000000002     47.456200000000003     45.151674999999997
H      46.879449999999999     49.500499999999995     45.130930999999997
