18

C      48.155249999999995     48.225299999999990     50.078299999999999
C      49.277449999999995     49.578299999999999     47.489300000000007
C      47.734050000000003     47.647700000000000     48.704600000000006
C      48.169350000000001     48.442999999999998     47.693900000000006
C      46.882650000000005     46.499499999999998     48.537799999999997
C      47.804049999999997     48.275400000000005     46.290200000000006
C      46.444349999999993     46.227000000000004     47.206700000000005
C      46.769650000000006     47.225600000000000     46.317600000000006
H      50.120150000000002     49.456800000000015     48.227399999999996
H      50.080949999999994     49.475600000000000     46.783400000000007
H      49.010950000000001     47.649299999999997     50.448799999999999
H      47.240249999999996     48.340000000000003     50.725699999999996
H      48.786250000000003     50.585099999999997     47.845900000000007
H      48.204150000000006     49.307400000000001     49.836800000000004
H      46.319650000000003     46.188500000000005     49.387000000000008
H      48.287849999999999     48.813900000000004     45.375399999999999
H      45.879849999999998     45.414900000000003     46.870799999999996
H      46.408949999999997     47.079499999999996     45.274300000000004
