22

C      49.662949999999995     47.126699999999992     46.734079999999985
C      48.603750000000005     46.521990000000002     45.877979999999994
C      49.338250000000002     46.741510000000005     48.190779999999990
C      47.358649999999997     47.379740000000005     46.338579999999993
C      48.522649999999999     47.950130000000001     48.544579999999996
C      47.385750000000002     48.239090000000004     47.692779999999999
C      48.463449999999995     48.393460000000005     49.884837000000005
C      46.345849999999999     49.009490000000000     48.187479999999994
C      47.756749999999997     49.554789999999997     50.292295000000003
C      46.701049999999995     49.797790000000006     49.464579999999998
H      49.827150000000003     48.298860000000005     46.643879999999996
H      50.697450000000003     46.699690000000004     46.388979999999989
H      48.504049999999992     45.439710000000005     46.121979999999994
H      48.955449999999999     46.645410000000005     44.741079999999997
H      50.379149999999996     46.902070000000002     48.894779999999997
H      48.745750000000001     45.734470000000002     47.990079999999992
H      46.539749999999998     46.817510000000006     46.542079999999999
H      47.137249999999995     48.227329999999995     45.685079999999999
H      48.878649999999993     47.780240000000006     50.825469999999996
H      45.302549999999997     49.206689999999995     47.655079999999998
H      47.732649999999992     50.079890000000006     51.258920000000003
H      45.965450000000004     50.560289999999995     49.752907600000000
