6

C      48.511749999999992     47.773899999999983     48.399511499999988
C      47.273749999999993     47.955799999999996     47.745201500000000
H      49.414550000000006     47.103799999999993     48.065221500000000
H      48.987250000000003     48.555299999999988     49.094771500000000
H      46.745249999999999     47.254199999999997     46.905228500000000
H      46.585449999999994     48.896200000000007     47.778461499999999
