18

C      47.294349999999987     49.130749999999985     50.301249999999989
C      48.457049999999995     48.357649999999992     50.422149999999988
C      46.672049999999999     49.097250000000003     49.003850000000000
C      49.270250000000004     47.644750000000002     49.354349999999997
C      47.580150000000003     48.641949999999994     48.027049999999996
C      48.850350000000006     47.783649999999994     48.010849999999998
C      47.223450000000000     48.822649999999996     46.632849999999998
C      49.385850000000005     47.145550000000000     46.877849999999995
C      47.946550000000002     48.525849999999991     45.446150000000003
C      48.933449999999993     47.391449999999992     45.507549999999995
H      46.849750000000000     49.544250000000005     51.226349999999996
H      50.320049999999995     47.074150000000003     49.791849999999997
H      48.195250000000001     48.128850000000000     51.559449999999998
H      45.679950000000005     49.314350000000005     48.762249999999995
H      46.640349999999998     49.658249999999995     46.081549999999993
H      50.185550000000006     46.341750000000005     47.097549999999998
H      48.106650000000002     48.993749999999991     44.440550000000002
H      49.274050000000003     46.935350000000000     44.586649999999999
