5

C      48.025299999999987     48.014299999999992     48.060999999999993
H      47.315999999999995     48.906799999999997     48.176899999999996
H      48.684000000000005     48.362199999999994     48.857999999999997
H      48.323599999999992     47.472900000000003     47.142000000000003
H      47.390199999999993     47.093200000000003     48.412100000000002
