6

C      48.264299999999999     48.217649999999999     47.678699999999992
C      47.430300000000003     47.623550000000009     48.407900000000005
H      47.447500000000005     46.684150000000002     48.755999999999993
H      49.312500000000000     47.538950000000007     47.114100000000001
H      48.209400000000002     49.315849999999998     47.265609999999995
H      46.687500000000000     48.263450000000006     48.885899999999999
