26

C      46.396049999999995     45.714599999999990     46.544199999999989
C      48.373049999999999     47.736600000000003     46.717899999999993
C      46.130250000000004     47.089899999999993     47.199899999999992
C      46.941850000000002     48.198399999999999     46.588699999999996
C      44.975050000000003     47.417300000000004     48.008800000000001
C      46.726149999999990     49.520999999999994     47.134899999999995
C      44.767150000000001     48.800800000000002     48.264099999999992
C      45.696150000000003     49.786700000000003     47.885599999999990
C      51.154550000000000     48.283899999999996     47.231199999999994
C      50.349550000000001     47.598599999999998     48.171299999999995
C      48.312349999999995     47.102700000000006     49.270299999999999
C      48.983649999999997     47.335199999999993     47.938200000000002
H      46.571650000000005     45.119499999999995     47.414999999999999
H      47.288649999999990     45.649099999999997     45.909299999999995
H      45.601649999999999     45.075200000000002     46.041499999999992
H      48.204749999999997     46.064100000000003     49.719799999999999
H      44.209550000000000     46.994099999999996     49.107300000000002
H      47.451650000000001     50.467700000000001     46.945500000000003
H      43.958150000000003     49.290699999999994     48.671599999999991
H      45.579149999999998     50.924799999999998     48.356199999999994
H      49.050350000000009     47.603599999999993     45.899999999999999
H      52.041849999999997     48.531299999999995     47.789200000000001
H      50.898949999999999     47.335799999999999     49.121899999999989
H      50.996449999999996     48.289099999999998     46.270000000000003
H      49.161549999999998     47.137099999999997     50.100000000000001
H      47.310350000000000     47.687700000000000     49.364100000000001
