6

C      47.324044999999998     48.267799999999994     47.910549999999986
C      48.268754999999999     47.486800000000002     48.340249999999990
H      47.105145000000007     47.994200000000006     46.861049999999999
H      46.916425000000004     49.062899999999999     48.484349999999999
H      49.083574999999996     47.473600000000005     49.138950000000001
H      48.543875000000000     46.937100000000001     47.429349999999992
