47

C      47.366449999999993     48.179749999999999     48.318700000000000
C      47.135549999999995     46.694749999999999     48.290100000000002
C      45.477350000000001     47.772250000000000     43.816900000000004
C      47.184749999999994     48.988150000000005     47.113900000000001
C      46.486850000000004     46.118650000000002     47.131700000000002
C      45.749750000000006     48.699449999999999     44.933000000000007
C      45.932850000000002     46.574750000000009     44.499400000000001
C      46.632649999999998     48.202150000000003     45.936900000000001
C      46.566149999999993     46.826149999999998     45.834500000000006
C      47.799049999999994     48.713850000000008     49.656000000000006
C      48.071150000000003     47.770049999999998     50.820800000000006
C      47.649249999999995     46.448549999999997     50.721800000000002
C      47.742949999999993     45.887850000000000     49.397499999999994
C      47.896150000000006     50.140950000000004     49.783700000000010
C      47.593350000000001     50.771850000000001     51.145700000000005
C      47.893349999999998     49.885549999999995     52.229500000000002
C      48.214950000000002     48.464950000000002     52.233900000000006
C      47.729950000000002     51.222549999999998     47.508600000000001
C      47.335149999999999     50.249350000000007     46.654900000000005
C      47.243849999999995     50.628950000000003     45.158100000000005
C      45.876149999999996     50.086650000000006     44.487100000000005
C      48.716650000000001     45.000450000000001     48.686500000000002
C      50.113349999999997     44.813850000000002     49.209100000000007
C      47.204049999999995     52.177050000000008     51.253100000000003
C      50.193349999999995     44.218249999999998     50.617699999999999
C      47.955050000000000     51.158050000000003     48.862500000000004
H      46.090549999999993     45.188950000000006     47.190300000000008
H      45.968649999999997     45.637150000000005     43.888100000000001
H      45.152349999999998     48.010549999999995     42.815200000000004
H      47.586449999999999     50.390349999999998     53.125100000000003
H      48.054649999999995     47.773650000000004     53.184799999999996
H      47.058650000000000     51.677049999999994     45.154200000000003
H      48.285849999999996     50.546149999999997     44.805000000000007
H      45.865849999999995     49.776849999999996     43.378900000000002
H      45.137950000000004     50.983249999999998     44.545200000000001
H      50.802149999999997     44.201250000000002     48.544899999999998
H      50.457049999999995     45.841650000000001     49.443799999999996
H      47.845650000000006     52.647849999999991     52.022200000000012
H      47.462149999999994     45.909649999999999     52.579899999999995
H      50.749549999999999     43.352150000000009     50.248300000000008
H      50.862049999999996     44.663250000000005     51.346000000000004
H      49.355850000000004     43.730450000000005     51.064100000000010
H      47.843350000000001     52.225549999999998     47.261900000000004
H      48.376450000000006     52.045150000000007     49.210600000000007
O      48.160349999999994     44.290549999999996     47.822100000000006
O      46.138450000000006     52.641649999999998     50.892300000000006
O      47.760949999999994     45.548349999999999     51.813100000000006
