22

C      47.290649999999999     49.283999999999992     50.133499999999998
C      48.255649999999996     50.115199999999994     49.287500000000001
C      47.792549999999999     47.782699999999998     49.766900000000000
C      48.750850000000007     49.571999999999996     47.802299999999995
C      47.714950000000009     47.505400000000002     48.259200000000000
C      47.873150000000003     48.490900000000003     47.220800000000004
C      48.290050000000001     46.215400000000002     47.985400000000006
C      47.614350000000009     48.356299999999997     45.838199999999993
C      47.968950000000000     45.854300000000002     46.735800000000005
C      47.432650000000002     46.915199999999999     45.732400000000005
H      46.233849999999997     49.615500000000004     49.790900000000001
H      47.377150000000007     49.639000000000003     51.178099999999993
H      47.723149999999997     51.149400000000000     49.360599999999998
H      49.146250000000002     49.977700000000006     49.993500000000004
H      48.960450000000002     47.738900000000001     50.116599999999998
H      47.290749999999996     47.004899999999999     50.184000000000005
H      49.766150000000003     48.988000000000000     47.629700000000007
H      48.612150000000007     50.509599999999999     47.133800000000001
H      48.575449999999996     45.552900000000001     48.788900000000005
H      47.396450000000009     49.234100000000005     45.214700000000001
H      48.039750000000005     44.850600000000000     46.663500000000006
H      46.803350000000002     46.799399999999999     44.821900000000007
