21

C      47.685099999999991     49.354399999999991     48.752699999999990
C      47.575799999999994     48.021200000000000     48.288899999999998
C      48.400299999999994     47.683599999999998     47.269099999999995
C      49.288199999999996     48.683399999999999     46.814099999999996
C      49.575699999999991     49.848600000000005     47.434600000000003
C      46.485699999999994     49.769199999999998     49.661500000000004
C      46.482299999999995     47.109199999999994     49.064999999999998
C      48.486499999999999     46.314399999999999     46.535200000000003
H      50.501399999999997     50.436099999999996     47.179900000000004
H      50.747800000000005     48.856600000000000     45.469800000000006
H      45.773899999999998     49.167400000000001     49.606800000000007
H      46.830999999999996     47.076899999999995     50.114800000000002
H      46.170099999999998     50.663100000000000     49.429400000000015
H      46.213199999999993     46.303699999999999     48.377700000000004
H      47.957499999999989     45.336900000000000     46.909500000000008
H      45.252199999999995     47.661499999999997     49.313000000000002
H      49.477300000000000     45.986100000000000     46.790199999999999
H      48.063299999999998     46.411999999999999     45.469499999999996
H      47.190700000000000     49.675100000000000     50.530500000000004
N      48.714399999999998     50.078599999999994     48.391599999999997
O      49.931199999999997     48.337599999999995     45.687899999999999
