6

C      48.025649999999999     48.166149999999995     47.355399999999989
C      48.189949999999996     47.831150000000008     48.549700000000009
H      48.654449999999997     48.408249999999995     49.196300000000001
H      47.776049999999998     46.847049999999996     48.962600000000002
H      47.345550000000003     47.496250000000003     46.803699999999999
H      48.097449999999995     49.152950000000004     46.844799999999999
