36

C      51.591849999999994     46.909249999999993     50.274819999999991
C      52.989450000000005     46.783850000000001     49.677430000000001
C      50.488749999999996     47.270449999999997     49.455240000000003
C      47.434150000000002     46.432649999999995     48.329000000000008
C      50.204049999999995     46.822150000000001     48.086849999999998
C      48.819850000000002     46.386350000000000     47.670100000000005
C      51.371449999999996     46.423749999999998     47.283220000000000
C      48.855549999999994     45.603949999999998     46.529420000000002
C      51.103350000000006     45.945549999999997     45.993579999999994
C      49.879450000000006     45.412350000000004     45.691839999999999
C      46.674850000000006     50.433350000000004     49.671379999999999
C      47.027950000000004     47.840450000000004     48.290329999999997
C      45.621049999999997     49.300650000000005     49.970619999999997
C      45.815950000000001     48.166550000000001     49.272549999999995
C      44.363749999999996     49.642150000000001     50.513620000000003
C      44.806550000000001     47.140649999999994     49.426519999999996
C      43.287450000000007     48.756550000000004     50.424820000000011
C      43.492649999999998     47.390650000000008     49.904520000000005
H      51.128749999999997     46.599249999999998     51.128820000000005
H      53.068950000000001     45.715350000000001     49.266289999999998
H      49.695049999999995     48.030249999999995     49.709599999999995
H      46.844049999999996     45.621949999999998     48.743279999999999
H      52.150949999999995     47.068650000000005     47.487560000000002
H      47.955250000000007     45.139049999999997     46.056489999999997
H      52.001649999999998     45.773250000000004     45.191980000000001
H      49.846249999999998     44.549149999999997     44.871179999999995
H      52.751250000000013     47.465750000000000     48.814250000000001
H      46.226749999999996     51.450850000000003     49.651960000000003
H      46.923749999999998     50.227649999999997     48.623220000000003
H      47.709450000000004     50.751649999999998     50.186920000000001
H      53.612750000000005     47.505549999999999     50.209720000000004
H      47.658749999999998     48.849450000000004     48.015540000000001
H      44.183750000000003     50.790750000000003     50.762919999999994
H      44.705550000000002     45.968550000000000     49.443269999999998
H      42.387249999999995     49.217349999999996     50.854219999999998
H      42.686450000000008     46.667549999999999     49.894320000000008
