32

C      47.087549999999993     46.928899999999999     48.190749999999987
C      45.582549999999998     46.870699999999999     47.758550000000000
C      47.191149999999993     48.194500000000005     48.608750000000001
C      44.939049999999995     48.180599999999998     47.506050000000002
C      46.158850000000001     48.974999999999994     47.934449999999998
C      43.756950000000003     48.630799999999994     46.962450000000004
C      45.972149999999999     50.398499999999999     47.763249999999999
C      43.797749999999994     50.065299999999993     46.714550000000003
C      44.708649999999992     50.932600000000008     47.420950000000005
C      51.035049999999998     44.762900000000002     49.631349999999998
C      48.390249999999995     46.161600000000007     48.422349999999994
C      50.884749999999997     45.787999999999997     48.538550000000001
C      49.694949999999992     46.567200000000000     48.073549999999997
C      52.140749999999997     46.371899999999997     48.057950000000005
C      49.892049999999998     47.584299999999999     47.027950000000004
C      52.236349999999987     47.239800000000002     46.991550000000004
C      51.054949999999991     47.844099999999997     46.286749999999998
H      45.531250000000000     46.229500000000002     47.014349999999993
H      48.053749999999994     48.702900000000000     49.185549999999992
H      42.892650000000003     48.218000000000004     47.200549999999993
H      44.452249999999992     51.953099999999992     47.024550000000005
H      43.260949999999994     50.409999999999997     45.936549999999997
H      46.897049999999993     50.946500000000000     47.769750000000002
H      44.994550000000004     46.250000000000000     48.788449999999997
H      51.281250000000000     45.407200000000003     50.605350000000001
H      51.901849999999996     44.269300000000001     49.599549999999994
H      48.288349999999994     44.983300000000000     48.159350000000003
H      50.495649999999998     44.046900000000008     48.954849999999993
H      52.931950000000001     45.800200000000004     48.337450000000004
H      49.062949999999987     47.752299999999991     46.410749999999993
H      53.107349999999997     46.793400000000005     46.501949999999994
H      51.174249999999986     48.416499999999999     45.394649999999999
