53

C      49.101849999999985     47.333999999999989     46.706099999999992
C      49.234450000000002     47.629700000000000     45.277900000000002
C      46.488049999999994     43.918900000000008     45.296999999999997
C      48.481450000000002     46.164299999999997     47.263599999999997
C      48.526949999999992     46.956699999999998     44.195300000000003
C      47.164250000000003     44.505600000000001     46.497399999999999
C      46.750149999999998     44.883200000000002     44.262400000000000
C      47.642249999999997     45.773799999999994     46.087299999999999
C      47.542749999999991     46.017300000000006     44.622000000000000
C      49.668649999999992     48.245900000000006     47.734600000000015
C      50.307349999999992     49.292300000000012     47.009399999999999
C      49.844149999999992     49.850099999999998     45.793300000000002
C      49.330449999999992     49.011600000000001     44.864400000000003
C      50.113049999999994     47.549500000000009     48.938600000000008
C      49.289149999999999     49.345500000000001     52.046099999999996
C      49.102249999999991     49.045600000000007     50.748500000000007
C      49.792549999999999     47.935699999999997     50.245400000000004
C      50.087650000000004     51.382300000000001     45.610200000000006
C      50.470649999999999     51.974900000000005     44.336500000000001
C      46.222949999999990     45.028500000000008     42.831199999999995
C      46.630149999999993     44.266000000000005     47.898700000000005
C      50.488949999999996     53.195400000000006     43.711799999999997
C      45.711849999999991     42.637600000000006     45.164100000000005
C      48.152250000000002     49.918499999999995     49.856999999999999
C      48.678350000000002     50.525499999999994     52.729000000000013
C      48.426650000000002     51.879599999999996     52.416499999999999
H      48.048549999999999     46.021900000000002     48.349400000000003
H      48.730550000000001     49.415500000000009     43.978300000000004
H      50.519749999999995     46.477699999999999     48.954800000000006
H      49.935150000000000     48.610900000000001     52.319100000000006
H      50.271749999999990     47.413400000000010     51.096299999999999
H      50.575349999999993     49.859600000000000     48.154700000000005
H      51.284349999999996     51.311899999999994     43.711600000000004
H      48.797549999999994     46.690200000000004     42.299999999999997
H      45.099049999999998     44.654499999999999     42.590900000000005
H      46.451450000000001     44.144700000000000     42.410800000000009
H      47.389549999999993     44.376800000000003     48.702399999999997
H      45.644349999999996     44.522599999999997     47.858699999999999
H      46.416949999999993     43.140200000000007     47.846400000000003
H      50.098350000000003     54.128399999999999     44.092399999999998
H      50.971550000000001     53.477000000000004     42.672100000000000
H      44.715650000000004     42.623699999999999     44.645800000000008
H      45.383749999999999     41.981999999999999     46.079000000000008
H      46.458949999999994     41.871600000000001     44.573999999999998
H      46.998150000000003     49.651600000000002     49.751199999999997
H      48.826749999999997     50.835599999999999     49.900199999999998
H      48.336149999999996     49.694500000000005     48.862400000000008
H      46.492649999999990     46.137600000000006     42.395300000000006
H      48.003449999999994     52.015500000000003     51.318200000000004
H      48.695450000000001     50.627700000000004     53.700000000000003
H      47.911549999999998     52.569500000000005     53.256900000000016
O      49.852049999999998     51.931899999999999     46.656000000000006
O      49.257749999999994     46.894099999999995     43.089600000000004
