7

C      48.012449999999994     46.601449999999986     47.727799999999988
C      47.511749999999999     48.039949999999990     48.107999999999997
C      47.383249999999997     49.188449999999989     48.317399999999999
H      47.287349999999996     45.722250000000003     47.921600000000005
H      48.462550000000000     46.240150000000000     48.692000000000000
H      47.067049999999995     50.277749999999997     48.107000000000006
H      48.932950000000005     46.298949999999991     47.308000000000000
