68

C      46.740449999999996     48.725399999999993     46.096099999999993
C      49.440750000000008     44.908699999999996     50.383100000000006
C      49.514850000000010     45.838000000000001     49.302799999999998
C      53.181550000000001     42.229900000000001     48.515200000000000
C      53.433350000000004     43.240800000000000     47.519100000000002
C      50.544850000000011     44.015799999999999     50.628800000000005
C      50.893850000000000     45.884900000000002     48.727799999999995
C      52.585250000000002     42.679299999999998     49.845099999999995
C      52.845950000000002     44.560899999999997     47.474899999999998
C      51.499350000000007     43.822400000000002     49.562900000000006
C      51.873550000000009     44.770499999999998     48.575399999999995
C      48.318450000000013     44.438400000000001     51.184800000000003
C      47.285950000000014     45.396599999999999     50.928599999999996
C      47.664850000000015     46.606499999999997     50.210299999999997
C      48.533450000000002     46.828400000000002     49.131200000000000
C      53.954650000000001     40.995699999999999     48.555600000000005
C      55.082850000000008     41.056500000000000     47.744000000000007
C      55.398850000000010     42.039899999999996     46.907100000000007
C      54.546350000000004     43.086500000000001     46.468600000000002
C      51.639350000000007     47.163100000000000     48.749100000000006
C      46.202250000000006     51.109400000000001     48.988199999999999
C      46.215650000000011     50.521900000000009     47.544000000000004
C      40.452450000000013     55.006599999999999     46.614799999999995
C      40.570750000000004     54.453499999999998     45.276299999999999
C      45.563750000000013     52.400500000000001     49.395699999999998
C      45.269750000000002     51.071100000000001     46.711300000000001
C      41.289550000000006     54.677700000000009     47.741099999999996
C      41.724050000000005     53.829900000000002     45.073100000000004
C      43.419850000000011     53.648600000000002     48.533200000000001
C      43.463050000000010     52.443999999999996     45.895000000000003
C      44.495550000000009     52.666599999999995     48.252400000000002
C      44.276250000000005     52.067199999999993     47.010600000000004
C      42.529450000000011     53.997000000000007     47.561699999999995
C      42.652650000000008     53.470500000000008     46.161499999999997
C      47.259150000000005     50.776699999999998     49.854700000000001
C      48.170450000000002     49.586199999999998     49.661200000000001
C      48.207550000000012     49.035499999999999     48.437700000000000
C      47.444050000000004     49.776399999999995     47.115100000000005
C      46.374650000000003     52.575699999999991     50.574900000000007
C      47.246850000000009     51.549999999999997     51.025399999999998
H      46.548850000000002     49.220599999999997     45.069300000000005
H      45.681250000000006     48.499499999999998     46.247300000000003
H      50.645750000000007     43.509599999999999     51.580099999999995
H      53.329050000000009     43.061799999999998     50.687900000000006
H      53.277750000000012     45.336799999999997     46.900900000000000
H      48.130550000000014     43.457299999999996     51.553300000000000
H      46.698050000000009     45.420699999999997     51.899600000000000
H      46.632050000000007     47.050399999999996     50.499400000000001
H      54.026650000000004     40.281500000000001     49.291800000000002
H      56.066050000000004     40.369000000000000     47.884000000000007
H      56.346750000000000     42.034500000000001     46.173099999999998
H      54.589750000000009     43.741199999999999     45.492799999999995
H      52.209650000000011     47.557099999999998     49.747999999999998
H      39.653250000000000     55.718499999999999     46.630400000000002
H      45.549850000000006     50.842199999999998     45.542899999999996
H      41.034350000000003     54.745300000000000     48.705599999999997
H      41.902550000000005     53.208400000000005     44.100400000000000
H      43.007350000000002     53.932400000000001     49.476900000000008
H      43.706950000000006     52.109200000000008     44.799799999999998
H      48.603650000000016     48.994500000000002     50.584099999999999
H      48.035550000000001     50.202799999999996     46.340499999999999
H      45.939550000000011     53.397799999999997     51.167600000000000
H      47.865850000000009     51.426299999999991     51.856299999999997
H      39.752050000000011     54.618299999999998     44.571099999999994
H      52.329450000000008     41.811799999999998     50.431300000000000
H      46.826350000000005     47.695200000000000     45.996599999999994
O      51.316850000000002     48.117300000000000     48.087399999999995
O      48.624550000000013     47.820999999999998     48.133000000000003
