33

C      45.712799999999987     49.656384999999993     47.848794999999988
C      46.246200000000002     49.012384999999995     46.576894999999993
C      48.031300000000002     45.715264999999995     49.863003000000006
C      49.223200000000006     46.280184999999996     49.091056000000002
C      45.689800000000005     48.558985000000000     48.746894999999995
C      47.330100000000002     48.145685000000000     46.574595000000002
C      46.877200000000002     46.563834999999997     49.741667000000000
C      49.173699999999997     47.141484999999996     48.002594999999999
C      46.756000000000000     47.453885000000000     48.707794999999990
C      47.801400000000001     47.513284999999996     47.802094999999994
C      44.947400000000002     50.925484999999995     48.029595000000000
C      44.859700000000004     51.725584999999995     46.909194999999997
C      45.283799999999999     51.128284999999991     45.659694999999999
C      45.909599999999998     49.973185000000001     45.519194999999996
C      48.109700000000004     44.636665000000001     50.734134999999995
C      49.376500000000007     44.102975000000001     50.864315000000005
C      50.509399999999999     44.294934999999995     50.067495000000001
C      50.443200000000004     45.497614999999996     49.311550000000004
C      45.013099999999994     48.845884999999996     49.960345000000004
H      47.827399999999997     48.390684999999998     45.650295000000000
H      46.321300000000008     46.657595000000001     50.637505000000004
H      49.970299999999995     47.149084999999999     47.222394999999992
H      44.699699999999993     51.488685000000004     48.934195000000003
H      44.781899999999993     52.756985000000000     46.595194999999990
H      46.173900000000003     49.517685000000000     44.647795000000002
H      47.207500000000010     44.337874999999997     51.226715000000013
H      49.098900000000000     43.243015000000000     51.646105000000006
H      51.288300000000007     43.601315000000000     49.663117999999997
H      51.300300000000007     45.673424999999995     48.630294999999990
H      45.081199999999995     52.426584999999989     44.455095000000000
H      45.095500000000001     48.181384999999999     50.785915000000003
H      44.751900000000006     49.874784999999989     49.952325000000002
O      44.791499999999999     51.572584999999989     44.353894999999994
