5

C      48.033133499999991     48.211334999999991     47.979021999999993
H      47.238806500000003     48.909795000000003     47.497492000000001
H      48.010403500000002     47.090204999999997     48.120841999999996
H      48.376313500000002     48.831744999999998     48.794482000000002
H      48.761193499999997     48.057805000000002     47.205517999999998
