21

C      49.035799999999995     46.894842999999987     50.051349999999992
C      50.278599999999997     47.766634999999994     49.121349999999993
C      47.627099999999999     47.300531999999990     50.212549999999993
C      49.523699999999991     49.133374999999987     48.844049999999996
C      47.308899999999994     47.706924999999991     48.872249999999994
C      48.272800000000004     48.609874999999995     48.215249999999997
C      46.271299999999997     47.780654999999996     47.790149999999997
C      48.372500000000002     49.020624999999995     46.892749999999992
C      46.058499999999995     48.486914999999989     46.657250000000005
C      47.231999999999999     48.864284999999995     45.967349999999996
H      49.540899999999993     46.498493999999994     50.919550000000001
H      50.700299999999999     47.279445999999993     48.292450000000002
H      51.017499999999998     48.042254999999997     49.681049999999999
H      46.749300000000005     46.857019999999991     50.911050000000003
H      48.863399999999999     46.176155000000008     49.300550000000001
H      50.265099999999990     49.823844999999992     48.351649999999992
H      49.445999999999998     49.410224999999997     49.894049999999993
H      45.085799999999992     47.324114999999992     47.771749999999997
H      49.298099999999991     49.656154999999991     46.832650000000001
H      44.982500000000002     48.808574999999990     46.134850000000000
H      47.367699999999999     49.501824999999982     45.080449999999999
