5

C      47.972949999999997     47.958599999999997     48.192699999999995
H      47.315150000000003     48.405000000000001     47.260800000000003
H      48.684849999999997     47.389299999999999     47.568600000000004
H      48.275850000000005     48.950800000000001     48.604700000000008
H      47.487949999999998     47.049199999999999     48.739199999999997
