5

C      47.948549999999997     48.323199999999993     48.172799999999995
H      47.910950000000007     48.544299999999993     47.088099999999997
H      47.977450000000005     47.241699999999994     48.107100000000003
H      47.189450000000001     48.716399999999993     48.911900000000003
H      48.810549999999999     48.758300000000006     48.384000000000000
