22

C      47.691249999999997     50.198299999999996     49.201449999999994
C      48.076549999999997     50.562200000000004     47.716849999999994
C      46.757850000000005     48.980400000000003     49.149450000000002
C      47.915450000000007     49.396900000000002     46.689650000000000
C      47.715849999999989     47.932000000000002     48.571649999999991
C      48.541250000000005     48.164000000000001     47.357749999999996
C      47.620850000000004     46.614600000000003     49.060450000000003
C      49.323449999999994     47.216300000000004     46.759749999999997
C      48.388450000000006     45.556700000000006     48.333249999999992
C      49.300449999999998     45.832099999999997     47.259050000000002
H      47.789649999999995     51.120100000000008     49.863649999999993
H      48.370949999999993     49.908000000000001     50.207949999999997
H      49.160250000000005     51.064500000000002     47.683149999999998
H      47.506950000000003     51.560400000000001     47.253349999999998
H      45.992549999999994     49.138300000000001     48.240749999999991
H      46.698949999999996     48.563500000000005     50.107149999999990
H      48.515050000000002     49.635000000000005     45.792050000000003
H      46.984150000000000     49.356700000000004     46.141549999999995
H      47.070450000000008     46.551800000000000     49.997050000000002
H      50.007450000000006     47.402000000000001     45.937649999999991
H      48.011750000000006     44.439599999999999     48.456149999999994
H      49.924350000000004     44.878700000000002     46.963650000000001
