20

C      47.107164999999988     50.066449999999989     48.429349999999985
C      48.668075000000009     50.436249999999994     48.632749999999994
C      46.395865000000001     48.891449999999999     48.056149999999995
C      49.420265000000015     49.177949999999996     48.620150000000002
C      47.290184000000011     47.765579999999993     47.934149999999995
C      48.725645000000000     47.918229999999994     47.966049999999989
C      47.013064999999997     46.596299999999992     47.211349999999989
C      49.662265000000005     47.036539999999995     47.455049999999993
C      47.902290000000008     45.482339999999994     46.975549999999991
C      49.314105000000012     45.685599999999994     46.987349999999999
H      49.820275000000009     48.961849999999991     49.654750000000000
H      48.780875000000009     50.847549999999991     49.573450000000001
H      46.397265000000004     50.951449999999987     48.305149999999990
H      45.393964999999994     48.631549999999997     47.921050000000001
H      48.933535000000006     51.317050000000002     47.888449999999999
H      50.160675000000012     49.326549999999997     47.821649999999998
H      45.785165000000006     46.603679999999997     47.164549999999998
H      50.606035000000006     47.013269999999999     47.324249999999999
H      47.534472000000008     44.682949999999998     46.345250000000000
H      50.042305000000013     45.005569999999999     46.671149999999990
