6

C      47.362799999999993     47.854199999999992     48.175149999999988
C      48.619700000000002     48.243400000000008     47.919550000000001
H      49.027899999999995     48.466700000000003     46.809849999999997
H      46.810899999999997     47.533299999999997     49.190150000000003
H      49.272900000000000     48.297100000000015     48.752650000000003
H      46.727100000000000     48.043700000000001     47.227950000000007
