6

C      47.915899999999993     48.516799999999996     48.493389999999991
C      47.979300000000002     47.665800000000004     47.581417999999999
H      48.685399999999994     49.213200000000001     48.748169999999995
H      47.369799999999998     48.099200000000003     49.349660000000000
H      47.289800000000000     46.786799999999999     47.966443999999996
H      48.710200000000000     47.508500000000005     46.650340000000000
