114

C      48.257189999999994     54.098784999999978     54.494549999999990
C      48.146589999999996     52.604404999999986     54.350149999999999
C      50.748789999999993     46.150354999999998     50.272049999999993
C      53.445889999999999     49.075998199999987     47.175749999999994
C      49.423690000000001     54.820704999999997     54.054450000000003
C      52.026789999999998     46.304355000000015     49.373050000000006
C      53.257489999999997     47.719754999999999     47.635249999999999
C      50.050490000000003     47.314355000000013     50.840649999999997
C      48.791490000000003     51.942484999999991     53.234650000000002
C      53.015390000000004     50.191484999999986     47.993350000000007
C      51.646290000000000     54.780164999999990     53.052850000000007
C      52.531190000000002     54.230864999999987     52.035250000000005
C      53.084690000000002     52.296514999999985     50.546850000000006
C      50.462589999999999     49.820796999999992     51.236649999999997
C      50.323490000000000     54.157274999999991     53.314250000000001
C      52.533290000000001     47.508354999999995     48.756649999999993
C      50.950389999999992     48.716154999999993     50.555049999999994
C      52.276789999999998     52.969644999999986     51.642049999999998
C      49.908290000000001     52.881484999999991     52.864850000000004
C      52.393989999999995     49.959638999999989     49.296549999999996
C      52.241590000000002     51.124234999999992     50.243549999999999
C      51.141689999999990     51.160354999999988     51.181550000000001
C      51.871389999999998     48.642455000000020     49.524950000000004
C      50.841789999999996     52.313574999999986     51.928550000000001
C      46.862490000000001     54.395254999999985     54.620550000000009
C      46.132150000000003     53.910494999999990     55.693449999999999
C      46.197830000000003     52.620864999999988     56.298950000000005
C      47.231410000000004     52.134484999999991     55.409750000000003
C      50.492989999999999     44.776755000000016     50.665649999999999
C      51.358390000000007     43.732954999999983     50.197050000000004
C      52.374389999999998     44.002154999999988     49.262349999999998
C      52.885190000000001     45.244854999999994     48.907750000000007
C      51.026090000000003     42.357055000000010     50.561549999999997
C      53.234990000000003     42.747854999999980     48.578050000000005
C      45.204720000000002     43.719554999999986     41.323049999999995
C      51.035090000000004     44.122054999999982     43.115250000000003
C      50.136990000000004     44.246054999999984     41.951949999999997
C      47.508589999999998     47.141355000000004     50.508949999999999
C      48.754989999999999     47.139455000000005     49.882649999999998
C      43.351840000000003     44.471154999999975     47.576350000000005
C      50.867590000000000     45.168255000000009     44.074250000000006
C      43.642679999999999     43.501855000000006     46.597049999999996
C      48.779590000000006     44.066654999999997     42.524150000000006
C      46.336080000000003     46.585855000000002     49.836250000000007
C      49.037089999999999     46.608454999999985     48.699349999999995
C      44.363819999999997     45.216154999999979     48.185050000000004
C      45.987369999999999     44.181454999999993     43.718649999999997
C      49.154590000000006     46.133954999999986     45.680750000000003
C      44.924320000000002     43.752354999999987     45.892349999999993
C      49.453790000000005     45.461354999999998     44.507649999999998
C      48.448689999999992     44.585655000000003     43.814250000000001
C      46.540990000000001     46.170154999999994     48.464449999999999
C      47.928490000000004     46.118955000000000     47.930149999999998
C      45.605089999999997     45.202354999999990     47.710250000000002
C      47.152839999999998     44.711755000000011     44.376050000000006
C      47.974989999999998     45.943254999999986     46.459549999999993
C      45.904429999999998     44.693554999999982     46.382549999999995
C      46.964160000000000     45.225155000000001     45.795050000000003
C      47.630890000000001     43.621155000000023     41.790949999999995
C      46.256319999999995     44.219354999999972     42.242649999999998
C      50.162489999999998     45.286255000000004     40.727549999999994
C      50.104689999999998     44.796255000000002     39.564949999999996
C      47.775689999999997     42.769554999999997     40.754249999999999
C      44.061180000000000     42.488854999999994     43.920249999999996
C      45.176070000000003     43.359354999999987     44.551950000000005
C      52.400190000000002     43.475954999999999     42.842950000000002
C      51.997089999999993     46.068754999999975     44.494150000000005
C      43.104219999999998     41.857054999999995     43.547150000000002
C      50.802990000000001     46.229954999999997     41.227249999999998
H      52.367289999999997     46.521954999999991     43.346249999999998
H      53.859890000000000     49.534302999999987     46.256349999999998
H      49.767789999999998     55.872444999999992     54.332549999999998
H      53.442389999999996     46.762554999999985     46.803349999999995
H      50.077790000000000     47.298854999999968     52.007549999999995
H      48.941690000000001     50.906014999999989     52.829750000000004
H      53.130789999999998     51.182104999999986     47.393150000000006
H      52.295989999999996     55.185554999999987     53.846750000000000
H      53.465389999999999     54.536744999999989     51.541950000000000
H      53.902189999999997     52.617404999999991     49.880549999999999
H      49.423489999999994     49.572012999999991     51.700649999999996
H      46.592759999999998     55.520514999999982     54.517650000000003
H      45.299349999999997     54.496914999999980     56.114550000000008
H      45.557449999999996     52.471384999999991     57.062150000000003
H      47.761189999999999     51.071984999999991     55.303250000000006
H      49.852789999999999     44.735255000000002     51.710250000000002
H      53.719389999999997     45.299454999999995     48.202150000000003
H      51.728890000000000     41.391854999999985     50.382949999999994
H      53.403990000000000     43.268254999999989     47.571749999999994
H      42.416770000000000     40.127555000000008     43.221149999999994
H      45.241169999999997     42.977254999999985     40.312349999999995
H      43.995179999999998     43.838355000000007     41.685749999999999
H      45.165950000000002     44.577255000000001     40.622749999999996
H      47.553890000000003     47.280054999999983     51.608050000000006
H      42.438319999999997     44.486854999999984     48.186149999999998
H      45.323239999999998     46.565554999999989     50.094149999999999
H      49.992690000000003     46.473154999999991     48.333550000000002
H      44.112259999999999     45.917254999999976     49.007549999999995
H      49.817190000000004     46.706154999999988     46.288650000000004
H      46.301510000000000     45.425354999999996     41.985749999999996
H      50.909990000000001     45.129754999999989     38.937849999999997
H      49.013190000000002     44.279354999999981     39.590950000000007
H      48.830590000000001     42.597054999999983     40.426349999999999
H      46.834080000000000     42.463254999999975     40.235050000000001
H      52.711689999999997     43.133855000000004     41.834050000000005
H      52.462089999999996     42.523155000000003     43.394949999999994
H      51.672689999999996     46.725955000000006     45.323650000000001
H      52.605989999999998     45.419454999999992     45.123850000000004
H      42.937790000000000     42.807854999999989     46.318150000000003
H      53.274790000000003     43.790355000000012     43.484750000000005
H      51.875689999999999     46.136454999999984     41.478149999999999
H      50.097789999999996     46.810454999999997     41.961650000000006
O      50.292589999999997     42.204755000000006     51.548450000000003
O      53.539489999999994     41.602354999999982     48.903750000000002
O      42.097810000000003     40.941254999999991     43.250450000000001
