26

C      51.284849999999992     50.322109999999995     49.974599999999988
C      47.039350000000006     46.021050000000002     48.688099999999999
C      49.350150000000006     45.723179999999999     48.724499999999992
C      49.537650000000006     47.110130000000005     49.296799999999998
C      48.513250000000006     48.034140000000001     48.826499999999996
C      47.314550000000004     47.437590000000000     48.452799999999996
C      50.838650000000008     47.618540000000003     49.605899999999998
C      45.975749999999998     48.243639999999999     48.300999999999995
C      45.479250000000000     49.081890000000001     47.153899999999993
C      44.761350000000000     49.505260000000000     46.066599999999994
H      50.178649999999998     45.615800000000000     47.443099999999994
H      51.311550000000004     50.608020000000003     48.859299999999998
H      50.146049999999995     50.757489999999997     49.926899999999996
H      51.900849999999998     51.038570000000000     50.553600000000003
H      49.837049999999998     44.961430000000000     49.446899999999992
H      48.550150000000009     49.116869999999999     48.793099999999995
H      51.579450000000001     46.911350000000006     49.278199999999998
H      44.099150000000002     48.900200000000005     45.446399999999997
H      46.086149999999996     48.983789999999999     49.191299999999998
H      44.870950000000001     45.859720000000003     49.220999999999997
H      44.327750000000002     47.290460000000003     48.156299999999995
H      44.486049999999999     50.697960000000002     46.117199999999997
N      47.983950000000000     45.271030000000003     48.860699999999994
O      51.323749999999997     48.698540000000001     50.158299999999997
O      44.686450000000001     47.660299999999999     48.968199999999996
O      45.710950000000004     45.662330000000004     48.818999999999996
