36

C      48.049099999999996     47.927449999999993     47.480049999999999
C      49.166699999999992     48.878350000000005     47.429150000000007
C      45.892799999999994     51.899149999999999     46.530450000000009
C      46.751199999999997     48.404850000000003     47.299250000000008
C      48.979199999999992     50.347850000000001     47.669650000000004
C      45.481799999999993     50.576649999999994     46.618350000000007
C      47.220100000000002     52.171450000000000     46.874050000000004
C      46.619799999999998     49.820050000000002     47.147950000000009
C      47.760800000000003     50.845449999999992     47.345250000000007
C      48.356499999999997     46.400349999999996     47.697750000000006
C      49.710999999999984     45.999050000000004     47.360550000000003
C      50.680199999999999     47.014649999999996     46.705050000000007
C      50.518400000000000     48.374950000000005     47.177050000000008
C      47.340000000000003     45.777049999999996     48.408350000000013
C      47.627200000000002     44.426749999999991     48.693350000000009
C      49.086699999999993     43.963950000000004     48.385550000000009
C      50.011200000000002     44.599449999999997     47.424750000000003
C      45.587699999999998     47.567550000000004     47.754150000000003
C      46.031199999999998     46.448150000000005     48.356950000000012
C      49.142799999999994     42.649750000000004     48.706050000000005
C      48.055099999999996     53.196149999999996     47.305850000000007
C      48.882300000000001     54.124950000000005     47.359850000000009
C      46.775199999999998     43.561249999999994     49.383750000000006
H      45.140599999999992     52.483349999999994     46.269650000000006
H      44.477300000000000     50.298049999999996     46.695850000000007
H      51.522700000000000     46.604849999999992     46.051450000000003
H      51.360199999999992     49.158349999999992     47.327850000000005
H      50.940600000000003     44.161949999999997     46.969150000000006
H      44.529600000000002     47.879449999999999     47.603150000000014
H      45.100099999999998     46.014649999999996     48.675849999999997
H      49.355599999999995     51.769150000000003     48.825450000000004
H      48.758299999999991     54.531950000000002     48.321650000000005
H      45.883600000000001     44.016550000000002     49.948549999999997
H      47.197500000000005     42.540249999999993     49.682550000000006
O      49.064700000000002     41.468049999999998     48.814850000000007
O      49.968599999999995     51.077049999999993     48.392750000000007
