21

C      47.963084999999992     47.865799999999993     50.374849999999995
C      47.390474999999995     48.605200000000004     49.087350000000001
C      45.749295000000004     47.774200000000000     46.682350000000000
C      47.909194999999997     48.193700000000000     47.618950000000005
C      47.278405000000006     47.851199999999999     46.429750000000006
C      49.372895000000000     48.166499999999992     47.931650000000005
C      47.811485000000005     47.046199999999992     45.279850000000003
C      49.744264999999999     47.232700000000001     46.959050000000005
C      49.127635000000012     46.992299999999993     45.687950000000001
H      45.766855000000007     46.908700000000003     47.459550000000000
H      48.116084999999998     46.887099999999997     49.990750000000006
H      48.846644999999995     48.094999999999992     51.193149999999996
H      46.819585000000004     47.681400000000004     51.189050000000002
H      46.224805000000003     48.559899999999992     49.165350000000004
H      47.918234999999996     49.581499999999998     49.239150000000002
H      45.291134999999997     48.878399999999992     47.103650000000002
H      45.360375000000005     47.613099999999996     45.711350000000003
H      49.765375000000006     48.568199999999997     48.746950000000005
H      46.896455000000003     46.418500000000002     44.806850000000004
H      50.708865000000003     46.829500000000003     47.035950000000000
H      49.795645000000007     46.512200000000000     45.073950000000004
