5

C      48.030899999999995     48.003450000000001     47.846549999999993
H      47.057299999999998     47.911549999999998     47.327050000000007
H      48.835200000000000     48.210250000000009     47.165050000000001
H      48.259900000000002     48.551549999999999     48.834949999999999
H      48.942700000000002     47.448450000000001     48.432050000000011
