23

C      47.630662999999991     45.703049999999990     46.902099999999990
C      47.716184999999996     45.329349999999998     48.323999999999998
C      48.268768000000001     46.129849999999998     49.414600000000007
C      46.236009999999993     47.862149999999993     48.336799999999997
C      48.379130000000004     47.608750000000008     48.859800000000007
C      47.391931499999998     48.240649999999995     48.224900000000005
C      49.455739999999999     48.251349999999995     49.663700000000006
C      47.424281000000001     49.680050000000001     48.104399999999998
C      49.289450000000002     49.689150000000005     49.785600000000002
C      48.343243000000001     50.345050000000001     49.033299999999997
H      47.742365000000007     45.266649999999998     45.834299999999999
H      48.214863000000008     44.448749999999997     48.306700000000006
H      46.520310000000009     46.205449999999992     46.725099999999998
H      48.040494999999993     46.711549999999995     46.770099999999999
H      46.626909999999988     44.984249999999996     48.600900000000010
H      49.162350000000004     45.644349999999996     50.082900000000009
H      47.513261000000000     46.100950000000005     50.165700000000001
H      50.426289999999995     47.827750000000002     49.929200000000009
H      46.601410000000016     50.366050000000008     47.745699999999999
H      49.986819999999994     50.377949999999991     50.165100000000010
H      48.231043000000000     51.551250000000003     49.072200000000009
H      45.962610000000019     47.838650000000008     49.383300000000006
H      45.573710000000005     47.751049999999999     47.541200000000003
