5

C      48.024849999999994     47.748599999999996     48.309919999999991
H      47.650849999999998     47.563899999999997     47.241930000000004
H      48.908050000000003     47.065999999999995     48.665660000000003
H      47.914349999999999     48.934000000000005     48.332609999999995
H      47.091949999999997     47.600800000000000     48.758069999999996
