10

C      48.465849999999996     47.825049999999997     47.986799999999988
C      48.059550000000002     47.622750000000003     46.665900000000008
C      47.656850000000006     47.587350000000001     49.316699999999997
H      46.918950000000002     49.251249999999999     50.040700000000001
H      49.403549999999996     48.212050000000005     48.325900000000004
H      48.539650000000002     48.336950000000002     45.869399999999999
H      47.205450000000006     47.193350000000002     46.403400000000005
H      48.240750000000006     46.748750000000001     49.779500000000013
H      46.596450000000004     47.276150000000001     49.284900000000007
O      47.762250000000002     48.772550000000010     50.130600000000001
