35

C      50.896249999999995     48.087199999999989     46.823749999999990
C      50.275449999999992     46.688899999999997     47.122450000000001
C      47.427949999999996     48.593599999999995     48.602449999999997
C      49.230549999999994     46.690999999999995     48.259549999999997
C      48.463749999999990     47.537299999999995     49.106349999999999
C      49.630749999999992     45.469899999999996     48.989449999999998
C      48.410349999999994     47.381799999999998     50.420850000000009
C      49.555849999999992     45.305799999999991     50.419649999999997
C      48.981949999999998     46.237899999999996     51.121649999999995
C      48.129750000000001     49.298999999999992     47.249950000000005
C      46.194350000000000     48.108099999999993     47.792349999999992
C      47.095749999999995     49.825399999999995     46.264049999999997
C      45.898150000000001     49.041899999999998     46.621249999999996
C      47.138349999999988     50.797899999999998     45.266449999999999
C      44.714849999999998     49.179800000000000     45.753050000000002
C      45.821550000000002     51.031099999999995     44.636649999999996
C      44.762249999999995     50.259799999999998     44.766849999999998
H      52.009450000000001     47.983899999999991     46.616650000000000
H      51.099049999999991     48.647099999999995     47.717549999999996
H      50.413950000000000     48.821399999999997     46.127749999999999
H      49.608049999999992     46.156999999999996     46.334350000000001
H      51.087449999999990     45.951200000000000     47.539049999999996
H      47.885349999999988     48.185099999999991     51.131749999999997
H      47.180949999999996     49.381599999999992     49.349750000000007
H      50.128649999999993     44.739899999999992     48.442149999999991
H      48.737749999999991     45.973699999999994     52.221250000000005
H      49.995049999999992     44.286400000000000     50.871749999999999
H      48.862849999999995     49.961599999999997     47.008150000000001
H      48.239750000000001     48.266899999999993     46.965750000000000
H      45.340649999999997     47.785199999999996     48.473149999999997
H      46.576250000000002     47.358999999999995     47.127649999999996
H      47.899749999999997     51.568699999999993     44.897649999999999
H      43.990549999999999     48.385599999999997     46.178849999999997
H      45.771949999999990     51.713600000000000     43.778749999999995
H      44.001149999999996     50.400700000000001     44.063549999999999
