21

C      49.574249999999999     47.815849999999998     47.452099999999994
C      48.508949999999999     49.896350000000005     49.124200000000002
C      48.085449999999994     47.655950000000004     47.628199999999993
C      47.769250000000000     48.601150000000004     48.723699999999994
C      47.427049999999994     46.412450000000000     47.541300000000000
C      46.604450000000000     48.429549999999999     49.340199999999996
C      46.179649999999995     46.223950000000002     48.250200000000000
C      45.778549999999996     47.228950000000005     49.114000000000004
C      49.911749999999998     48.912749999999996     46.464300000000001
H      49.529349999999994     50.045350000000006     49.058199999999999
H      49.913449999999997     46.831850000000003     47.169000000000004
H      47.676950000000005     50.320950000000003     49.822000000000003
H      48.124549999999999     50.580249999999999     48.220800000000004
H      48.316249999999997     45.782750000000000     47.196100000000001
H      44.909949999999995     47.053150000000002     49.549000000000007
H      45.293750000000003     45.419750000000001     48.373600000000003
H      46.797950000000000     49.071750000000002     50.567000000000000
H      49.546049999999994     48.898350000000001     45.433000000000000
H      51.090050000000005     49.025350000000010     46.277900000000002
H      49.288950000000000     49.761250000000011     46.489100000000001
H      49.980249999999998     47.880249999999997     48.600300000000004
