53

C      51.447114999999997     48.058999999999997     47.013999999999996
C      50.503215000000004     48.931100000000001     47.791399999999996
C      43.542645000000000     46.430899999999994     51.322199999999995
C      51.038015000000001     46.916200000000003     46.530500000000004
C      43.337465000000002     45.087699999999998     50.809299999999993
C      44.575785000000003     47.243499999999997     50.646199999999993
C      49.170315000000002     48.360500000000002     48.114599999999996
C      44.319324999999999     43.403499999999994     48.877299999999991
C      45.147964999999999     43.730000000000004     47.755699999999990
C      46.658035000000005     47.165300000000002     49.103699999999989
C      44.266325000000002     44.395399999999995     49.932599999999994
C      49.926814999999998     46.229500000000002     47.231700000000004
C      45.551585000000003     46.552099999999996     49.852099999999993
C      48.845415000000003     47.033599999999993     47.962299999999999
C      46.107745000000001     44.629700000000000     48.446699999999993
C      47.827915000000004     46.304599999999994     48.646099999999990
C      47.328615000000006     45.084800000000001     47.988199999999992
C      45.429465000000000     45.103999999999999     49.738199999999992
C      48.179515000000002     49.129700000000000     48.919200000000004
C      46.948625000000000     48.610299999999995     49.454899999999995
C      45.975614999999998     49.343900000000005     50.390000000000001
C      44.986125000000001     48.568699999999993     51.063800000000001
C      52.394114999999999     48.853399999999993     46.075499999999991
C      52.419815000000000     50.272700000000000     46.393999999999991
C      51.743015000000000     50.902199999999993     47.527000000000001
C      50.625215000000004     50.260599999999997     48.275700000000001
C      49.715814999999999     51.025400000000005     48.902199999999993
C      48.523515000000003     50.503099999999989     49.354799999999997
C      47.499015000000000     51.458500000000001     50.006999999999991
C      46.690285000000003     50.469999999999999     51.137699999999995
C      51.599515000000004     46.329200000000000     45.285699999999991
C      52.779715000000003     46.913200000000003     44.875000000000000
C      53.076015000000005     48.372199999999992     44.920000000000002
C      52.292615000000005     52.324900000000000     47.563599999999994
H      42.699335000000005     47.140600000000006     51.739199999999997
H      42.419885000000001     44.674499999999995     50.693299999999994
H      43.321775000000002     42.871399999999994     48.792000000000002
H      45.711625000000005     43.272599999999997     46.984399999999994
H      47.709215000000000     44.714500000000001     47.081299999999999
H      44.207795000000004     49.033000000000001     51.566400000000002
H      53.241215000000004     50.754400000000004     45.657899999999998
H      49.712915000000002     52.064700000000002     48.817999999999998
H      46.867105000000002     51.965299999999999     49.416799999999995
H      48.115715000000002     51.941100000000006     50.798599999999993
H      47.550114999999998     50.135199999999998     51.823599999999999
H      45.986555000000003     51.189899999999994     51.745800000000003
H      50.900515000000006     45.831999999999994     44.640100000000004
H      53.580114999999999     46.679299999999998     44.176400000000001
H      53.264815000000006     49.205999999999989     44.285699999999991
H      52.670115000000003     52.604100000000003     46.544600000000003
H      49.406815000000002     44.350600000000000     47.671999999999997
N      50.024515000000001     44.975399999999993     47.178100000000001
O      51.527014999999999     53.128600000000006     47.988599999999991
