20

C      50.035299999999985     46.598699999999994     49.196699999999993
C      46.280099999999997     45.966000000000001     47.274099999999997
C      49.811199999999992     47.461700000000000     48.250500000000002
C      47.059999999999995     46.480399999999996     48.380499999999998
C      48.702599999999997     48.452999999999996     48.000999999999998
C      47.347999999999992     47.910499999999999     48.138900000000000
C      48.759799999999998     49.600599999999993     47.280299999999997
C      46.054799999999993     48.495999999999995     47.595100000000002
C      47.560799999999993     50.203399999999995     46.851300000000002
C      46.424199999999992     49.402999999999999     46.558399999999999
H      50.961100000000002     46.099299999999999     49.297199999999997
H      45.755299999999998     46.772099999999988     46.771900000000002
H      46.014599999999994     44.874299999999998     47.008200000000002
H      50.611899999999991     47.781799999999997     47.557299999999998
H      49.338799999999992     46.417499999999997     49.901699999999998
H      47.428499999999993     45.579799999999999     49.022399999999998
H      49.708299999999994     50.057399999999994     47.186599999999999
H      45.038899999999998     48.347000000000001     48.142699999999998
H      47.746099999999998     51.125700000000002     46.278100000000002
H      45.739999999999995     49.885500000000000     46.098300000000002
