17

C      49.986249999999998     47.537749999999996     46.421749999999996
C      48.592849999999999     48.017150000000001     46.056249999999999
C      50.139449999999997     47.395550000000000     47.784549999999996
C      47.807649999999995     47.487049999999996     47.361750000000001
C      48.708849999999998     47.503850000000000     48.388950000000008
C      46.447249999999997     47.421350000000004     47.683250000000001
C      48.245350000000002     47.190849999999998     49.742049999999999
C      46.148849999999996     47.109549999999999     49.028550000000010
C      46.957449999999994     46.797550000000001     50.117650000000012
H      50.947549999999993     46.766949999999994     48.001449999999991
H      50.794550000000001     47.152349999999998     45.692150000000005
H      48.193349999999995     47.705749999999995     45.101450000000000
H      48.914850000000001     49.233050000000006     46.173950000000005
H      45.685950000000005     47.323149999999998     46.886650000000003
H      49.039550000000006     46.907349999999994     50.531449999999992
H      45.052450000000007     46.864249999999998     49.344450000000009
H      46.345550000000003     46.895650000000003     50.898550000000000
