23

C      45.334349999999993     47.998049999999999     47.477300000000000
C      48.591450000000009     48.641550000000009     49.272000000000006
C      47.184950000000001     48.916650000000004     48.873900000000006
C      50.192450000000008     46.514450000000004     48.572799999999987
C      46.713250000000002     47.995050000000006     48.081599999999995
C      49.097650000000002     47.091250000000002     47.725600000000000
C      47.670250000000010     46.853250000000003     47.590399999999988
C      49.497750000000011     48.614250000000013     48.083699999999993
C      49.357350000000011     49.316150000000007     46.667900000000003
H      44.618949999999998     48.565450000000013     48.249600000000001
H      45.292950000000005     48.249949999999998     46.210200000000000
H      48.386250000000004     47.408550000000005     49.498999999999995
H      49.022350000000003     49.451550000000012     50.177300000000002
H      46.494650000000007     49.918650000000000     49.185800000000000
H      51.381050000000002     46.324650000000005     48.026899999999998
H      49.926550000000006     45.512850000000000     48.702399999999997
H      50.244850000000000     47.140950000000004     49.438000000000002
H      50.458750000000009     48.537750000000003     48.534899999999993
H      47.721450000000004     45.616250000000008     47.339900000000000
H      48.513150000000010     49.232450000000000     45.822699999999998
H      50.093850000000003     48.726050000000001     46.073300000000003
H      49.577849999999998     50.487150000000000     46.865600000000001
H      45.221550000000008     46.859850000000009     47.111599999999996
