40

C      48.291449999999998     48.411099999999990     47.300714999999990
C      48.956250000000004     49.685800000000000     47.612814999999998
C      44.613950000000003     50.113900000000008     50.324214999999995
C      46.888050000000000     48.223599999999998     47.893314999999994
C      48.150150000000004     50.798699999999990     48.060414999999992
C      45.018149999999999     49.088499999999996     49.450014999999993
C      45.998449999999998     51.701499999999989     49.059514999999998
C      46.202649999999998     49.248999999999995     48.636015000000000
C      46.826950000000004     50.557800000000000     48.508314999999996
C      49.244350000000004     47.353200000000001     46.988914999999992
C      50.445050000000002     47.754799999999996     46.451114999999994
C      51.151450000000004     49.114199999999997     46.628614999999996
C      50.388749999999995     49.856299999999997     47.434714999999997
C      49.033650000000002     46.036099999999998     47.328114999999997
C      50.012850000000007     44.908699999999996     46.916614999999993
C      51.235450000000007     45.405799999999999     46.423514999999995
C      51.290750000000003     46.769799999999996     45.847954999999999
C      47.710250000000002     45.685399999999994     47.725314999999995
C      46.704950000000004     46.790999999999997     48.146815000000004
C      45.721450000000004     46.234800000000000     48.895814999999999
C      44.173150000000000     47.956399999999995     49.880114999999996
C      45.185949999999998     51.462100000000000     50.226614999999995
C      45.885650000000005     44.621099999999998     48.864114999999998
C      44.586250000000000     46.697399999999995     49.568214999999995
C      47.123550000000002     44.507500000000000     48.071714999999998
H      43.752749999999999     50.065599999999996     50.920815000000005
H      48.357450000000000     51.808900000000001     47.686514999999993
H      51.145050000000005     50.607799999999997     47.796314999999993
H      50.129750000000001     43.726099999999995     47.027114999999995
H      51.924749999999996     44.575499999999998     46.658514999999994
H      51.923150000000000     47.040199999999999     45.079184999999995
H      43.203250000000004     48.174599999999998     50.469214999999991
H      52.796749999999996     49.199199999999998     45.132314999999991
H      44.459050000000005     52.169599999999996     50.637414999999990
H      44.856050000000003     44.106800000000000     48.475314999999995
H      45.824249999999999     43.864500000000000     49.570414999999997
H      44.043849999999999     46.012799999999999     50.407414999999986
H      47.591450000000002     43.554400000000001     48.188714999999995
H      45.458350000000003     52.445599999999999     48.496214999999992
O      52.306050000000006     49.572399999999995     46.182214999999999
