56

C      48.641498999999996     45.733754999999995     46.431300000000000
C      49.215280999999990     45.275055000000009     45.180400000000006
C      47.042119999999997     49.862025000000003     44.620599999999996
C      46.391220000000004     49.063535000000016     43.541700000000006
C      48.180820000000011     46.968855000000005     46.626400000000004
C      48.309820000000002     45.618355000000008     44.106999999999999
C      48.010419999999996     49.166975000000008     45.296800000000005
C      46.703320000000005     47.612687000000008     43.269700000000000
C      47.984120000000019     47.743247000000011     45.323000000000008
C      47.505620000000022     46.781554999999997     44.368600000000001
C      48.595827999999997     44.741555000000005     47.466600000000000
C      49.489889999999988     43.647255000000001     47.374399999999994
C      50.140649999999994     43.134155000000007     46.231200000000001
C      50.134709999999984     44.088655000000003     45.223600000000005
C      45.897420000000011     51.764105000000008     44.079700000000003
C      45.311920000000015     51.064375000000013     43.021200000000007
C      45.349419999999995     49.729375000000019     42.895300000000006
C      47.450019999999981     47.603727000000013     47.714200000000005
C      46.211920000000021     46.750455000000002     49.821300000000008
C      47.593720000000019     45.234454999999997     48.464500000000001
C      46.158519999999996     45.924954999999997     50.873900000000006
C      45.774619999999999     46.141855000000007     52.305099999999996
C      45.209320000000019     53.066755000000015     44.515799999999999
C      45.659819999999982     45.113155000000006     53.244600000000005
C      46.869819999999990     49.040175000000005     47.951200000000000
C      47.348720000000014     44.061554999999998     49.382900000000006
C      50.537589999999994     44.141655000000000     43.714600000000004
C      47.030320000000017     46.532155000000003     48.606800000000007
C      45.473920000000021     46.784255000000002     42.661699999999996
H      48.347920000000016     44.993454999999997     43.280500000000004
H      46.999220000000008     47.588277000000012     42.198400000000007
H      49.208872000000000     42.585355000000007     47.691000000000003
H      50.571169999999995     42.171954999999997     45.860299999999995
H      44.614519999999985     51.805675000000008     42.638900000000007
H      44.947320000000019     49.234755000000021     41.897900000000007
H      45.804420000000007     47.207255000000004     52.591499999999996
H      44.827220000000011     53.339525000000009     45.573000000000008
H      49.677409999999995     49.612515000000009     46.387000000000000
H      45.911020000000008     45.562155000000004     54.185800000000000
H      45.488420000000005     43.966455000000011     52.988699999999994
H      46.015420000000006     48.744985000000014     48.873800000000003
H      47.535319999999999     49.639825000000002     48.135700000000000
H      46.332220000000007     49.630645000000015     47.098600000000005
H      48.494873200000001     43.899155000000007     49.393799999999999
H      47.048720000000003     43.136655000000005     48.981300000000005
H      50.750140000000002     45.310155000000009     43.407200000000003
H      49.711929999999995     43.939055000000010     43.078500000000005
H      51.441580000000002     43.758755000000008     43.710000000000008
H      45.913620000000009     47.694810000000011     50.247799999999998
H      44.558419999999998     47.195554999999999     42.024600000000007
H      45.195219999999992     46.467055000000002     43.789800000000000
H      46.172619999999995     46.169055000000000     41.814200000000000
N      46.911220000000000     51.183525000000003     44.627800000000008
O      46.488920000000007     44.711955000000003     50.499300000000005
O      44.612719999999996     53.828045000000003     43.764899999999997
O      48.777711999999994     49.844685000000013     46.146000000000001
