43

C      49.692499999999995     49.679549999999992     47.863799999999991
C      50.106399999999994     48.968350000000001     46.649200000000000
C      46.088200000000001     46.559249999999992     48.198800000000006
C      46.488900000000001     45.720450000000000     46.961500000000001
C      48.784300000000002     49.099350000000001     48.762100000000004
C      49.813499999999991     47.586249999999993     46.492500000000000
C      46.658100000000005     47.767449999999997     48.567700000000002
C      47.862099999999998     45.969949999999997     46.789699999999996
C      48.038299999999992     48.013350000000003     48.274400000000000
C      48.638199999999998     47.199150000000003     47.131999999999998
C      50.407299999999992     50.960449999999994     48.297200000000004
C      51.557599999999994     51.626049999999992     47.566800000000001
C      52.107099999999988     50.798249999999996     46.674799999999998
C      51.466199999999986     49.513849999999991     46.320599999999999
C      44.825999999999993     46.029249999999990     48.777099999999990
C      44.009399999999999     45.256749999999997     48.006000000000000
C      44.362600000000000     44.567949999999996     46.857299999999995
C      45.682400000000001     44.653849999999991     46.457099999999997
C      48.320999999999998     49.883550000000000     49.963099999999997
C      48.969399999999993     51.069049999999990     50.322099999999992
C      49.897499999999994     51.653749999999988     49.397000000000006
C      50.877200000000002     46.746049999999997     45.815799999999996
C      52.137699999999995     47.258249999999990     45.490800000000000
C      52.234700000000004     48.743549999999999     45.475099999999998
C      51.262199999999993     45.195650000000001     45.783900000000003
H      46.169499999999999     48.392849999999996     49.270699999999998
H      48.584800000000001     45.568950000000001     45.926899999999996
H      52.133799999999994     52.601549999999989     47.642399999999995
H      53.086200000000005     51.060549999999992     46.191000000000003
H      43.107900000000001     44.992249999999999     48.727099999999993
H      46.215900000000005     44.519549999999995     45.343699999999998
H      47.452900000000000     49.626249999999999     50.643500000000003
H      49.151100000000000     51.437749999999994     51.311300000000003
H      49.858999999999995     52.764049999999997     49.625399999999999
H      52.684399999999997     46.552549999999997     44.688699999999997
H      52.983599999999996     49.127849999999995     44.864999999999995
H      44.620599999999996     46.532049999999998     50.923499999999997
H      42.913799999999995     43.235950000000003     46.690700000000000
H      50.549099999999996     44.548749999999998     46.081800000000001
H      52.049700000000001     45.110249999999994     44.920699999999997
H      52.051699999999997     45.016049999999993     46.453899999999997
O      44.529399999999995     46.171049999999994     50.067000000000000
O      43.478700000000003     43.756949999999989     46.231699999999996
