22

C      47.605249999999998     45.579949999999997     47.834849999999989
C      48.977250000000005     45.862250000000003     47.958950000000002
C      46.922149999999995     47.039549999999991     47.406449999999992
C      49.565350000000002     47.306349999999995     47.888750000000002
C      47.342149999999997     48.171449999999993     48.354349999999997
C      48.780350000000006     48.500749999999996     48.260249999999999
C      46.383850000000002     49.072449999999989     48.853250000000003
C      49.443750000000001     49.600549999999998     48.924750000000003
C      46.939650000000007     50.335149999999999     49.348349999999996
C      48.397650000000006     50.475349999999992     49.395349999999993
H      47.596049999999998     44.555250000000001     47.306849999999997
H      47.252450000000003     45.764049999999997     48.851349999999996
H      49.503650000000000     45.609849999999994     46.883349999999993
H      49.452750000000002     45.253149999999991     48.816850000000002
H      47.256149999999998     46.963749999999990     46.149249999999995
H      45.773249999999997     46.994749999999996     47.268149999999991
H      50.087150000000001     47.643050000000002     46.911249999999995
H      50.530650000000001     47.341749999999990     48.311549999999997
H      45.469349999999999     48.457549999999998     48.862250000000003
H      50.306850000000004     49.679850000000002     48.230249999999998
H      46.451050000000002     51.261849999999995     49.318150000000003
H      48.755850000000002     51.444749999999999     49.850750000000005
