18

C      46.176499999999997     46.899104999999992     46.905599999999993
C      45.965299999999999     46.269154999999998     48.270299999999999
C      47.148300000000006     47.767364999999998     46.407000000000004
C      46.980699999999999     46.737774999999999     49.104700000000001
C      48.010099999999994     48.327475000000000     47.375700000000002
C      47.895700000000005     47.735835000000002     48.647600000000004
C      48.979500000000002     49.334134999999996     47.037200000000006
C      48.933099999999996     48.248605000000005     49.630299999999998
C      49.899500000000003     49.722604999999994     47.926499999999997
C      49.785399999999996     49.249625000000002     49.367200000000004
H      45.272599999999997     46.571705000000001     46.474499999999999
H      45.083399999999997     45.659095000000001     48.666900000000005
H      46.952100000000002     47.963164999999996     45.381300000000003
H      47.194199999999995     46.292274999999997     50.119500000000002
H      49.098900000000000     49.462514999999996     45.844500000000004
H      48.793800000000005     47.670115000000003     50.618699999999997
H      50.916600000000003     50.340904999999999     47.657500000000006
H      50.355699999999999     49.797964999999998     50.030000000000008
