43

C      47.016469499999992     43.424999999999997     46.678749999999994
C      45.961769499999988     44.514499999999998     46.890250000000002
C      45.885469499999999     45.477599999999995     47.970150000000004
C      47.768669499999987     47.799700000000001     46.738550000000004
C      47.233969499999986     46.259699999999995     48.486350000000002
C      48.307669499999989     46.846199999999996     47.790950000000002
C      47.671569499999990     45.820099999999996     49.767949999999999
C      49.356069499999990     47.429000000000002     48.580450000000006
C      48.851369499999990     46.008799999999994     50.592250000000000
C      49.499069499999990     47.101399999999998     49.995650000000005
C      49.581269499999991     51.950099999999992     49.256750000000004
C      48.597469499999988     52.372599999999991     50.135350000000003
C      47.078269499999990     48.939599999999999     47.713250000000002
C      49.550269499999999     50.789299999999997     48.119550000000011
C      47.508469499999990     50.068799999999996     46.865349999999999
C      48.721769499999994     50.996600000000001     46.848750000000003
C      46.625469499999994     50.284599999999998     45.785250000000005
C      48.568469499999992     52.247100000000003     46.146650000000001
C      46.393869499999994     51.562799999999996     45.122850000000000
C      47.495769499999994     52.516399999999990     45.173950000000005
H      48.050869499999990     43.778700000000001     46.746650000000010
H      46.617269499999992     42.586600000000004     46.049550000000004
H      47.159069499999987     42.711200000000005     47.591050000000003
H      45.592769499999989     46.489800000000002     47.620550000000001
H      45.946769499999988     45.244299999999996     46.035250000000005
H      45.366469499999994     45.192800000000005     48.842649999999999
H      46.806369499999988     48.190500000000000     45.929549999999999
H      48.640969499999997     48.099799999999988     46.394350000000003
H      46.801569499999999     45.451099999999997     50.473849999999992
H      50.039769499999991     48.180599999999998     48.037749999999996
H      48.813169499999987     45.757700000000000     51.556750000000001
H      50.284038199999998     47.260599999999997     50.544549999999994
H      48.951869499999987     53.147199999999998     50.765750000000004
H      50.612203500000007     52.339299999999994     49.181850000000004
H      47.608069499999999     52.181199999999990     49.811249999999994
H      50.633530500000006     50.397499999999994     47.975149999999999
H      46.076069499999988     48.627499999999998     47.791249999999998
H      47.340869499999997     48.805499999999995     48.914250000000003
H      48.999969499999992     50.147400000000005     48.798349999999999
H      45.903669499999992     49.653000000000006     45.878750000000004
H      45.494969499999996     51.619100000000003     44.443249999999999
H      47.460469499999988     53.413399999999996     44.871850000000002
H      49.046769499999996     53.168799999999990     46.549050000000001
