6

C      47.938849999999995     48.727499999999992     48.213799999999999
C      47.723849999999999     47.449910000000003     47.792100000000005
H      48.901449999999997     49.233280000000001     48.938299999999998
H      47.098550000000003     49.536830000000002     48.167800000000007
H      48.444350000000000     46.990380000000002     48.508400000000002
H      47.487750000000005     46.463169999999998     47.061700000000002
