8

C      47.949999499999997     48.944499999999991     47.995449999999998
C      48.070099499999998     47.457799999999999     47.816050000000004
H      48.962119500000000     49.267800000000001     47.371150000000000
H      47.775439500000005     49.064900000000002     49.172849999999997
H      47.037880500000000     49.249199999999995     47.613950000000003
H      48.083009500000003     47.033499999999997     48.771050000000002
H      48.829599500000000     47.117399999999996     46.827150000000003
H      47.195552499999998     46.732199999999999     47.466850000000001
