16

C      46.972649999999994     46.271099999999990     49.197999999999993
C      46.926749999999998     46.602300000000014     46.519900000000000
C      47.458849999999998     47.351500000000001     48.800000000000004
C      47.579350000000005     47.524799999999999     47.350000000000001
C      47.795650000000009     48.404300000000006     49.730200000000004
C      48.802650000000000     48.290800000000004     47.098900000000000
C      48.675250000000005     49.373199999999997     49.264400000000002
C      49.435550000000006     48.962700000000012     48.118499999999997
H      45.928550000000001     46.284700000000001     49.212600000000002
H      46.963850000000001     45.806399999999996     50.215799999999994
H      46.982250000000008     46.604399999999998     45.300800000000002
H      45.948950000000004     46.147000000000006     46.893000000000001
H      47.354849999999999     48.069600000000008     50.699199999999998
H      49.386049999999997     48.149100000000004     46.178100000000001
H      49.108150000000009     50.193600000000004     49.836999999999996
H      50.071449999999999     49.518100000000004     47.482700000000001
