22

C      48.805049999999994     46.737150000000000     48.089239999999990
C      46.096249999999998     45.720850000000006     47.580959999999990
C      47.632549999999995     47.641650000000006     48.084199999999996
C      46.548850000000002     47.075550000000000     47.266480000000001
C      47.915850000000006     49.054150000000000     47.976979999999998
C      46.088149999999999     47.798049999999996     46.358980000000003
C      46.927250000000001     49.911350000000006     47.328760000000003
C      46.011449999999996     49.332249999999995     46.419399999999996
C      50.383949999999999     45.579150000000006     49.403230000000008
C      48.872749999999996     45.684950000000008     49.002789999999990
H      45.227050000000006     49.920750000000005     46.062179999999998
H      49.720349999999996     47.406450000000000     47.497119999999995
H      46.878950000000003     44.967149999999997     47.200819999999993
H      45.938050000000004     45.675950000000007     48.632539999999992
H      44.944950000000006     45.317249999999994     46.822429999999997
H      47.231150000000000     51.032850000000003     47.701290000000000
H      45.482550000000003     47.251550000000002     45.587319999999991
H      48.509349999999998     49.749550000000006     48.548439999999999
H      51.055049999999994     45.478850000000001     48.375900000000001
H      50.950950000000006     46.511950000000006     49.721589999999992
H      50.492350000000002     45.055249999999994     50.412680000000009
H      48.067549999999997     45.474950000000000     49.581329999999994
