6

C      48.413749999999993     48.288639999999987     47.252600000000001
C      47.473850000000006     47.821899999999999     48.228799999999993
H      49.375650000000000     47.797119999999993     47.412999999999997
H      48.151650000000011     49.353040000000007     47.484899999999996
H      47.527149999999999     46.646959999999993     48.319600000000008
H      46.624350000000000     48.328599999999994     48.747399999999999
