6

C      48.684149999999988     47.927049999999987     47.807164999999998
C      47.205349999999996     48.099050000000005     47.841854999999995
H      49.274150000000006     48.880049999999997     47.420265000000001
H      49.246550000000013     47.013949999999994     47.688284999999993
H      46.725849999999994     47.262050000000002     47.531525000000002
H      46.888050000000007     48.986050000000006     48.579734999999999
