6

C      47.867249999999991     48.769049999999986     48.007799999999989
C      47.994450000000001     47.401049999999998     48.039400000000001
H      47.605649999999997     49.083849999999998     46.896299999999997
H      47.601450000000000     49.382350000000002     48.937300000000008
H      48.398550000000000     46.617649999999998     47.279200000000003
H      48.108550000000008     47.036450000000002     49.103700000000003
