5

C      47.934999999999988     48.077849999999998     48.085148999999994
H      47.116300000000003     48.767749999999999     47.812148999999991
H      48.883699999999997     47.572450000000011     48.754750999999999
H      47.369999999999997     47.232250000000001     47.723748999999998
H      48.699900000000007     48.595750000000002     47.245249000000001
