5

C      48.397399999999990     47.785999999999994     47.999349999999993
H      48.517299999999992     48.868099999999998     48.553949999999993
H      48.510999999999996     47.131900000000002     48.956150000000001
H      47.095500000000001     48.194200000000009     47.748449999999998
H      48.904499999999999     47.677500000000009     47.043849999999999
