6

C      48.003999999999991     48.172299999999993     48.643889999999992
C      48.087300000000006     48.270000000000003     47.208789999999993
H      47.994300000000003     47.246000000000002     49.422510000000003
H      48.854900000000001     48.586900000000007     49.308402999999998
H      48.765999999999998     48.753999999999998     46.577489999999997
H      47.145099999999999     48.749299999999998     47.166689999999988
