20

C      48.667199999999987     46.188154999999995     50.252849999999995
C      46.331899999999997     49.599825000000003     49.978149999999999
C      49.391499999999994     46.529744999999998     49.168650000000000
C      47.126799999999996     48.494934999999998     49.545949999999998
C      48.387000000000000     46.856275000000004     48.052349999999997
C      47.507399999999997     48.099854999999998     48.216550000000005
C      48.443699999999993     46.172044999999997     46.847850000000001
C      46.512400000000000     48.518614999999990     47.315249999999999
C      47.532599999999995     46.434244999999997     45.761050000000004
C      46.649199999999993     47.547975000000001     46.172550000000001
H      47.819199999999995     45.639935000000001     50.020450000000004
H      46.385499999999993     50.548324999999998     49.305050000000001
H      46.348699999999994     49.423994999999998     50.995950000000001
H      48.611999999999995     46.365185000000004     51.273850000000003
H      50.280000000000001     47.100594999999991     49.327750000000002
H      47.617199999999997     47.840204999999997     50.459449999999997
H      48.941699999999997     45.451675000000002     46.248049999999999
H      45.720499999999994     48.818935000000003     47.992350000000002
H      47.587099999999992     45.956144999999999     44.726149999999997
H      45.719999999999999     47.644244999999998     45.517550000000000
