42

C      50.931999999999995     47.988799999999991     48.682899999999989
C      50.675400000000003     47.728600000000000     50.117300000000000
C      45.759500000000003     47.315500000000000     49.112700000000004
C      49.918100000000003     47.728499999999997     47.697299999999998
C      49.323100000000004     47.061199999999999     50.297200000000004
C      47.270800000000001     47.659199999999998     47.338700000000003
C      46.790100000000002     47.088499999999996     49.932800000000000
C      48.493499999999997     47.493699999999997     48.052199999999999
C      48.086700000000000     47.397100000000002     49.380300000000005
C      51.828200000000010     49.010900000000007     48.209900000000005
C      52.667299999999997     49.455999999999996     49.168499999999995
C      52.430000000000000     49.308599999999998     50.630099999999999
C      51.471400000000003     48.109000000000002     51.053200000000004
C      50.433399999999999     47.533699999999996     46.277599999999993
C      51.244299999999996     48.717799999999997     45.646100000000004
C      52.147800000000004     49.533600000000007     46.739199999999997
C      44.364699999999999     47.071399999999997     49.463500000000010
C      43.450099999999999     48.183399999999999     48.922700000000006
C      52.093299999999999     48.712499999999999     44.291399999999996
C      52.769500000000008     49.977199999999996     51.755399999999995
C      49.356999999999999     45.810099999999998     50.893900000000002
H      47.647800000000004     47.592300000000002     46.313500000000005
H      46.806899999999999     46.860500000000002     51.005200000000002
H      53.629700000000000     49.913400000000003     48.979200000000006
H      51.366399999999999     47.973799999999997     52.119500000000002
H      49.402300000000004     47.603000000000002     45.768500000000003
H      50.754400000000004     46.474100000000000     46.202100000000002
H      50.529200000000003     49.558499999999995     45.364899999999992
H      53.043799999999997     49.388300000000001     46.177099999999996
H      51.977100000000007     50.776700000000005     46.718599999999995
H      42.370300000000000     47.859899999999996     49.244799999999998
H      43.101100000000002     49.165999999999997     49.524900000000002
H      51.637199999999993     48.819099999999999     43.302599999999998
H      52.927000000000000     49.472699999999996     44.546099999999996
H      52.591700000000003     47.636400000000002     44.101799999999997
H      53.226300000000002     50.949799999999996     51.447400000000002
H      52.727400000000003     49.343199999999996     52.697400000000002
H      50.276800000000001     45.404600000000002     51.124100000000013
H      48.413300000000000     45.050200000000004     50.874099999999999
H      43.572699999999998     48.383099999999999     47.680800000000005
N      46.037700000000001     47.730699999999999     47.788200000000003
O      43.899299999999997     46.737899999999996     50.523600000000002
