46

C      48.622099999999989     48.737249999999996     50.829449999999994
C      48.065299999999993     47.416449999999998     50.709350000000001
C      45.827900000000000     47.081550000000007     42.450049999999997
C      49.197999999999993     49.466850000000008     49.673150000000000
C      46.945499999999996     47.983549999999994     42.486249999999998
C      45.938399999999994     45.981849999999994     43.312549999999995
C      47.963099999999997     46.866550000000004     49.393650000000001
C      48.659599999999990     50.044550000000001     44.771549999999998
C      47.227699999999999     45.128749999999997     45.337350000000001
C      47.381799999999998     45.811450000000008     46.638849999999998
C      48.894599999999990     49.798850000000002     47.201149999999998
C      47.777299999999997     48.471750000000000     43.530149999999999
C      46.903599999999997     46.127350000000007     44.317149999999998
C      48.878200000000000     49.079250000000002     48.314349999999997
C      48.635599999999997     49.172849999999997     45.937649999999998
C      48.428599999999996     47.587950000000006     48.240050000000004
C      47.914099999999998     47.096750000000000     47.032350000000001
C      47.696499999999993     47.400350000000003     44.545650000000002
C      48.298399999999994     47.816950000000006     45.788149999999995
C      47.328499999999998     45.454250000000002     49.105849999999997
C      46.854299999999995     45.120850000000004     47.785450000000004
C      49.178899999999999     49.168149999999997     52.100950000000005
C      48.772499999999987     48.342749999999995     53.195550000000004
C      48.014899999999997     47.266350000000003     53.060650000000003
C      47.847499999999997     46.583150000000003     51.786250000000003
C      47.578799999999994     45.221550000000008     51.619049999999994
C      46.928999999999995     45.001950000000008     50.355550000000001
C      49.865899999999996     50.701149999999998     49.794450000000005
C      50.312599999999996     51.157849999999996     51.016349999999996
C      49.816599999999987     50.430350000000004     52.158350000000006
H      44.988199999999999     47.286850000000001     41.734450000000002
H      47.026499999999999     48.796450000000007     41.765149999999998
H      48.478499999999997     50.922150000000002     45.321249999999999
H      46.999899999999997     44.028149999999997     45.022050000000000
H      49.332100000000004     50.820049999999995     47.081550000000000
H      46.296899999999994     44.152450000000002     47.834449999999997
H      49.132299999999994     48.732749999999996     54.265549999999998
H      47.631899999999995     46.960949999999997     54.065049999999999
H      47.370999999999995     44.460449999999994     52.356950000000005
H      46.343799999999995     44.155249999999995     50.339949999999995
H      50.192099999999996     51.382149999999996     48.951249999999995
H      51.011800000000001     51.971850000000003     51.007749999999994
H      49.783899999999996     50.961449999999999     53.000750000000004
H      45.671299999999995     44.198750000000004     42.955649999999999
N      48.250699999999995     49.686949999999996     43.508649999999996
O      45.108699999999999     45.031350000000003     42.862549999999999
