17

C      49.462149999999994     48.155549999999991     46.559399999999989
C      46.758350000000000     46.425650000000005     46.272500000000008
C      48.114249999999991     48.428250000000006     47.283799999999999
C      47.082349999999998     47.290350000000004     47.366299999999995
C      47.754550000000002     49.754250000000013     47.580300000000008
C      46.593349999999994     47.131749999999997     48.768400000000000
C      47.138050000000000     49.584050000000005     48.841499999999996
C      46.954549999999990     48.362450000000010     49.434200000000004
H      50.037950000000002     48.986450000000005     46.213800000000006
H      50.035249999999998     47.431449999999998     47.335899999999995
H      46.421849999999999     45.304249999999996     46.088400000000007
H      46.682049999999997     46.658150000000006     45.391400000000004
H      48.002949999999991     50.695750000000004     46.972099999999998
H      45.962049999999998     46.388649999999998     49.408000000000001
H      46.690649999999998     50.572450000000003     49.395099999999999
H      46.712749999999993     48.156850000000006     50.608599999999996
H      49.446649999999998     47.286950000000004     45.850400000000008
