6

C      48.099299999999992     48.688749999999992     48.085849999999994
C      48.126499999999993     47.285250000000005     48.098849999999999
H      47.287800000000004     49.192350000000005     47.544950000000000
H      48.639499999999998     49.444550000000000     48.681650000000005
H      47.667699999999996     46.742750000000001     47.249250000000004
H      48.712199999999996     46.555450000000000     48.750749999999996
