18

C      46.743899999999996     49.857649999999992     48.220384999999993
C      49.677199999999999     48.889049999999997     48.606544999999997
C      47.269999999999996     48.532750000000007     47.652405000000002
C      48.647399999999990     48.006249999999994     47.919205000000005
C      46.223900000000000     47.822249999999997     47.166884999999994
C      49.002899999999997     46.786950000000004     47.219515000000001
C      46.518400000000000     46.430750000000003     46.951054999999997
C      47.880899999999997     45.943950000000001     47.066725000000005
H      45.798500000000004     49.750450000000001     48.644104999999996
H      49.864699999999999     48.308350000000004     49.540194999999997
H      47.105300000000000     50.251450000000006     49.282664999999994
H      47.388300000000001     50.950749999999999     47.749304999999993
H      49.554600000000008     49.903949999999995     48.535974999999993
H      50.740899999999996     49.247450000000001     48.530774999999991
H      45.259100000000004     48.306950000000001     47.073004999999995
H      50.006399999999999     46.405450000000002     47.435995000000005
H      45.747900000000001     45.517949999999999     46.744484999999997
H      48.000799999999998     45.049250000000001     46.459805000000003
