58

C      48.478599999999986     47.242300000000000     47.514769999999984
C      47.567999999999998     48.436399999999999     47.327429999999993
C      47.889899999999997     48.242200000000004     52.269819999999982
C      47.177400000000006     49.623399999999997     51.963879999999989
C      49.019700000000000     47.107499999999995     48.810699999999983
C      47.485399999999998     49.427900000000001     48.348119999999980
C      48.668800000000005     47.639599999999994     51.256529999999984
C      47.403800000000004     50.233499999999999     50.665629999999993
C      48.419699999999992     47.863599999999998     49.836579999999984
C      47.710899999999995     49.213600000000007     49.742379999999983
C      48.892099999999999     46.355499999999999     46.539923999999985
C      48.204499999999996     46.287799999999997     45.269369999999981
C      47.142499999999998     47.306800000000003     44.992369999999994
C      47.158599999999993     48.448799999999999     45.940151999999983
C      47.822599999999994     47.616099999999996     53.624119999999976
C      46.909700000000001     48.274499999999996     54.570379999999986
C      46.306100000000001     49.514699999999998     54.227749999999986
C      46.841200000000001     50.321599999999997     53.114199999999983
C      49.908599999999993     45.317399999999999     46.982749999999982
C      50.430999999999997     44.489500000000000     45.956646999999990
C      49.804100000000005     44.332900000000002     44.746870000000001
C      48.801299999999998     45.256300000000003     44.363169999999997
C      50.410899999999998     45.141700000000007     48.295409999999990
C      49.625000000000000     45.810099999999998     49.349969999999985
C      49.833400000000012     45.687099999999994     50.744099999999989
C      49.143199999999993     46.339000000000006     51.844159999999988
C      48.670400000000001     46.544599999999996     54.136159999999990
C      49.501800000000003     45.789999999999999     53.107379999999978
C      46.143100000000004     47.190400000000004     43.924970000000002
C      45.455399999999997     48.403399999999998     43.642769999999970
C      45.483300000000000     49.578799999999994     44.482869999999977
C      46.430999999999997     49.675500000000007     45.463770000000011
C      48.496799999999993     45.432700000000004     42.908569999999983
C      49.469200000000001     44.819700000000005     42.283070000000009
C      46.506799999999998     51.768700000000003     53.328659999999985
C      50.274400000000000     44.189500000000002     41.523669999999967
C      50.245899999999992     44.579400000000000     51.032879999999992
H      47.032899999999998     50.268999999999998     48.178459999999987
H      47.352699999999999     51.323299999999996     50.411099999999990
H      46.639899999999997     47.539899999999996     55.450629999999990
H      45.545100000000005     49.459499999999998     55.051249999999982
H      51.203500000000005     44.017199999999995     46.284781999999993
H      51.418300000000002     44.692200000000007     48.447349999999986
H      48.914000000000001     46.467400000000005     55.208349999999982
H      49.772099999999995     44.571800000000003     52.994149999999991
H      45.682100000000005     46.209399999999995     43.520870000000002
H      44.581699999999998     48.410500000000006     42.909969999999987
H      46.637000000000000     50.691399999999994     45.538869999999989
H      50.924499999999995     43.653600000000004     42.298569999999984
H      47.773700000000005     46.208400000000005     42.571169999999995
H      45.878199999999993     52.029000000000003     52.346579999999989
H      44.608900000000006     51.556500000000007     44.342569999999995
H      49.951300000000003     43.892000000000003     40.549370000000010
H      50.233000000000004     43.568700000000000     44.223070000000007
H      51.211600000000004     44.486399999999996     51.503559999999993
H      49.716099999999997     43.625800000000005     50.981489999999980
O      46.774699999999996     52.431300000000000     54.308249999999987
O      44.661400000000000     50.556599999999996     44.098169999999982
