6

C      48.626374999999996     47.736099999999993     47.926299999999991
C      47.426203200000003     48.208999999999996     48.239500000000007
H      47.103225000000030     49.272500000000001     48.392600000000002
H      48.927695000000007     46.727499999999999     47.607399999999998
H      49.330274999999993     48.460499999999989     47.612299999999998
H      46.669725000000007     47.472299999999997     48.346599999999995
