6

C      48.485039999999991     47.965249999999997     47.647599999999997
C      47.581580000000002     48.199550000000002     48.631900000000002
H      49.457059999999998     47.584350000000001     47.948000000000000
H      48.533150000000006     47.963250000000002     46.396300000000004
H      46.542940000000002     48.415649999999999     48.288000000000004
H      47.691429999999997     47.925849999999997     49.603699999999996
