5

C      47.619309999999984     48.527549999999991     47.519199999999998
H      48.930140000000002     46.605350000000001     49.550599999999996
H      47.477969999999992     48.310050000000004     46.449400000000004
H      47.069859999999998     49.394649999999999     48.256300000000003
S      48.061859999999996     47.120850000000004     48.482700000000001
