36

C      44.912899999999993     47.972849999999994     48.500254999999989
C      44.974899999999998     47.616149999999998     47.110554999999991
C      48.040100000000002     48.111650000000004     48.111454999999992
C      46.041699999999999     48.188549999999999     45.819154999999995
C      47.617600000000003     49.432449999999996     47.559054999999987
C      46.579999999999991     49.420049999999996     46.524355000000000
C      48.155799999999992     50.672750000000001     47.918254999999988
C      45.837499999999999     50.447949999999999     46.079354999999993
C      47.651800000000001     51.858749999999993     47.230554999999995
C      46.327300000000001     51.681750000000001     46.760954999999996
C      47.797099999999993     47.585850000000001     49.424533000000011
C      47.376100000000001     44.581750000000007     49.427520999999999
C      48.979599999999998     46.650349999999996     49.517882000000000
C      48.727200000000003     45.189349999999997     49.514587000000006
C      50.119999999999997     47.088450000000002     50.094397999999998
C      49.732899999999994     44.287249999999993     49.957782999999992
C      51.092800000000004     46.177249999999994     50.519584999999999
C      50.913499999999992     44.862349999999999     50.359144999999998
H      46.691799999999994     44.509949999999996     50.312514999999998
H      45.309099999999994     48.941949999999999     48.756354999999999
H      44.027600000000000     47.652049999999996     48.974354999999989
H      44.714300000000001     46.825550000000000     46.310954999999993
H      48.979899999999994     47.765650000000001     47.667554999999993
H      46.883699999999997     47.788050000000005     45.569454999999991
H      45.400699999999993     48.616250000000001     44.952754999999996
H      48.603500000000004     50.907950000000007     48.817754999999991
H      44.995899999999999     50.452350000000003     45.223954999999989
H      47.756200000000000     52.800850000000004     47.531754999999990
H      45.770899999999990     52.600850000000001     46.299054999999996
H      47.007199999999990     45.060750000000006     48.363254999999995
H      47.597199999999994     48.300249999999998     50.170895000000002
H      47.519500000000001     43.228550000000006     49.170611700000009
H      50.132799999999996     48.281849999999999     50.316495000000003
H      49.644900000000000     43.199149999999996     50.121375000000000
H      51.972400000000000     46.537550000000003     51.047245000000004
H      51.902799999999992     44.437850000000005     50.677454999999995
