6

C      48.351599999999991     48.054699999999990     48.339399999999983
C      48.041300000000000     47.062200000000004     47.723300000000002
H      48.964000000000006     47.939999999999998     49.332400000000000
H      48.254100000000001     49.051000000000002     47.914699999999989
H      48.621199999999995     46.999400000000009     46.667600000000000
H      47.035999999999994     46.948999999999998     47.281399999999998
