16

C      48.243499999999990     49.456750000000000     46.657099999999986
C      49.948599999999999     48.152749999999997     48.388300000000001
C      47.826399999999992     48.843350000000001     47.667199999999994
C      48.623999999999995     47.701849999999993     48.129099999999994
C      47.001199999999997     49.440749999999994     48.672899999999998
C      47.807299999999998     46.523049999999998     48.611999999999995
C      46.313299999999998     48.478350000000006     49.286900000000003
C      46.649099999999997     46.924250000000001     49.111999999999995
H      49.117399999999996     48.890050000000002     46.151899999999998
H      47.695200000000000     50.223649999999992     46.040400000000005
H      50.505200000000002     47.458749999999995     49.143200000000007
H      50.473100000000002     48.851250000000007     47.621799999999993
H      46.473500000000001     50.479650000000007     48.644800000000004
H      48.030999999999999     45.520349999999993     48.551100000000005
H      45.494799999999998     48.616550000000004     49.959599999999995
H      45.752899999999997     46.382249999999999     49.339600000000004
