7

C      46.978649999999995     48.203249999999990     46.981650000000002
C      47.301349999999999     47.458449999999999     48.074950000000008
C      48.091349999999998     46.845549999999996     49.026350000000001
H      46.902650000000001     47.638550000000002     46.012650000000001
H      46.755650000000003     49.373750000000001     47.091450000000002
H      47.544550000000001     46.626249999999999     49.987349999999999
H      49.244349999999997     46.839050000000000     49.040050000000001
