36

C      50.321194999999989     46.527349999999991     48.271499999999989
C      50.871194999999993     47.914349999999999     48.291200000000003
C      46.075385000000004     48.458449999999999     49.001100000000008
C      46.621185000000004     49.931449999999998     48.942800000000005
C      48.947485000000022     46.435450000000003     48.610900000000001
C      50.129524999999994     49.137450000000001     48.318899999999999
C      46.827185000000000     47.316950000000006     49.106800000000007
C      47.960285000000013     50.053449999999998     48.928300000000007
C      48.247484999999998     47.572949999999992     48.849699999999999
C      48.764785000000010     48.918250000000000     48.382800000000003
C      50.933044999999993     45.433949999999996     47.539699999999996
C      52.329055000000004     45.806049999999999     47.357700000000008
C      53.103204999999996     46.876049999999999     47.882300000000001
C      52.297304999999987     47.914150000000006     48.473399999999998
C      44.622484999999990     48.567049999999995     49.194400000000002
C      43.766084999999997     49.574950000000001     48.939999999999998
C      44.333784999999999     50.873649999999998     48.847999999999999
C      45.731385000000010     51.006950000000003     49.117999999999995
C      53.120224999999998     44.585449999999994     46.781199999999998
C      48.620985000000012     51.133150000000001     49.089100000000002
H      42.015985000000008     49.991050000000001     48.360299999999995
H      48.218984999999989     45.569049999999997     48.312300000000008
H      50.589075000000001     50.255150000000000     48.266800000000003
H      46.280085000000000     46.382549999999995     49.633200000000002
H      50.456884999999993     44.749849999999995     47.023600000000002
H      53.984014999999992     47.216049999999996     47.280200000000008
H      52.947064999999995     48.862449999999995     48.096800000000002
H      44.712785000000004     47.891449999999992     50.086799999999997
H      43.767585000000004     51.804850000000002     48.426500000000004
H      45.833485000000010     52.144350000000003     49.006100000000004
H      52.410225000000004     43.855649999999997     46.402000000000001
H      53.748425000000005     44.585749999999997     47.805400000000006
H      53.619554999999998     45.089950000000002     45.913200000000003
H      48.271585000000009     52.052349999999990     49.638500000000008
H      49.807289999999995     51.051850000000002     49.121099999999998
O      42.417785000000002     49.253249999999994     48.711800000000011
