5

C      48.312499999999993     47.846349999999994     47.976749999999996
H      48.514700000000005     47.168549999999996     48.904149999999994
H      47.220399999999998     48.310050000000004     48.058750000000011
H      48.779600000000002     48.852450000000005     47.750850000000000
H      48.134799999999998     47.147549999999995     47.095850000000006
