22

C      47.619850000000000     45.260699999999993     48.018749999999997
C      47.422550000000008     45.329099999999997     46.568550000000002
C      47.600750000000005     46.524699999999996     48.793849999999999
C      45.727050000000006     48.957799999999992     49.401650000000011
C      48.184450000000005     47.979799999999997     48.565249999999999
C      47.131150000000005     49.044299999999993     48.797150000000009
C      49.514450000000004     48.268499999999989     48.457750000000011
C      47.601750000000003     50.354100000000003     48.765850000000007
C      49.991150000000005     49.677399999999992     48.212849999999996
C      48.943050000000007     50.714900000000000     48.390049999999995
H      45.135850000000005     49.882700000000000     49.650550000000003
H      47.173150000000007     44.505499999999998     48.500050000000009
H      46.925250000000005     44.535599999999995     46.072150000000001
H      47.332450000000001     46.337999999999994     46.082850000000001
H      48.233050000000006     46.024199999999993     49.791150000000009
H      46.732250000000001     46.638599999999997     49.460350000000005
H      45.448550000000004     47.801699999999997     49.927849999999999
H      45.024250000000002     48.320200000000000     48.766349999999996
H      50.342250000000014     47.565799999999996     48.402149999999999
H      46.966850000000001     51.016800000000003     49.241650000000000
H      50.975749999999998     49.422299999999993     48.708150000000010
H      49.386250000000004     51.494500000000002     48.885950000000001
