29

C      47.449549999999995     48.016599999999997     48.460649999999994
C      47.710850000000001     48.239500000000000     46.962750000000000
C      52.302749999999989     46.849200000000003     48.629550000000002
C      52.318550000000002     47.286300000000004     47.252350000000000
C      48.599750000000000     47.480499999999999     49.242850000000004
C      49.143749999999997     48.296900000000001     46.358049999999999
C      50.992750000000001     47.099800000000002     49.207549999999998
C      51.575649999999996     48.765300000000003     47.381550000000004
C      49.962550000000007     47.726100000000002     48.712150000000008
C      50.166849999999997     48.318000000000005     47.380449999999996
C      46.040349999999997     47.876800000000003     48.726450000000000
C      44.925449999999998     47.846899999999998     47.803250000000006
C      45.007550000000002     48.570299999999996     46.718450000000004
C      46.442450000000001     48.433600000000006     46.432549999999999
C      43.481249999999996     47.388300000000008     47.984750000000005
H      53.051749999999998     46.317100000000003     49.306249999999999
H      49.402250000000002     48.454400000000000     45.273049999999998
H      51.150849999999991     46.298300000000005     50.102850000000004
H      52.001950000000008     49.701699999999995     47.760950000000001
H      45.977849999999997     47.135400000000004     49.523849999999996
H      44.047350000000002     48.818199999999997     46.069749999999999
H      46.822649999999996     48.575499999999998     45.342550000000003
H      49.600949999999997     47.079300000000003     50.726950000000002
H      42.983649999999997     48.280500000000004     47.580349999999996
H      42.948250000000002     46.824700000000000     47.199249999999999
H      51.717849999999999     48.887499999999996     46.228850000000001
H      43.285649999999997     46.787399999999998     49.073149999999998
O      52.258949999999999     46.540800000000004     46.315550000000002
O      48.501149999999996     47.407100000000007     50.597049999999996
