18

C      49.097478499999994     48.815249999999992     49.627449999999989
C      49.305508499999995     49.600049999999996     46.649450000000002
C      48.238698499999998     47.968150000000009     48.635950000000001
C      48.473848500000003     48.453850000000003     47.283749999999998
C      47.518618500000002     46.842349999999996     48.924149999999997
C      47.698318499999999     47.781050000000008     46.327849999999998
C      46.650158500000003     46.360950000000003     47.925950000000000
C      46.527708500000003     47.109750000000005     46.751350000000002
H      48.380928500000003     49.820549999999997     49.642650000000003
H      48.770468500000000     48.885149999999996     50.654049999999998
H      49.623108500000001     50.577150000000003     47.313049999999997
H      50.108458500000005     49.038950000000000     46.215350000000001
H      48.489508499999999     50.134650000000008     46.028550000000003
H      47.564778500000003     46.793250000000000     50.072149999999993
H      47.797598499999999     48.223250000000007     45.345950000000002
H      46.068361500000002     45.422849999999997     48.056350000000002
H      45.791491499999999     46.483149999999995     46.058850000000000
H      50.208508500000001     48.314350000000005     49.898250000000004
