17

C      45.915504999999982     48.240199999999994     49.020749999999992
C      46.623894000000000     47.598399999999998     46.335450000000002
C      47.114275000000013     48.098100000000002     48.704550000000005
C      47.567615000000004     47.605400000000003     47.463750000000005
C      48.188065000000002     48.155999999999999     49.742950000000000
C      48.916225000000004     48.050200000000004     47.085950000000004
C      49.467345000000002     48.361900000000006     49.434350000000002
C      49.795705000000005     48.783200000000008     48.090550000000000
H      46.587881000000003     46.826499999999996     45.506349999999998
H      45.867404999999998     47.537700000000001     49.992249999999999
H      45.138304999999995     48.761400000000009     48.309449999999998
H      47.307965000000003     48.541100000000000     45.345050000000001
H      45.485404999999993     47.983499999999999     46.362150000000000
H      47.902615000000004     48.005400000000002     50.654949999999999
H      49.461075000000001     47.595500000000001     46.127650000000003
H      50.250765000000008     48.672300000000000     50.139549999999993
H      50.861695000000005     49.173500000000004     47.837650000000004
