5

C      47.924799999999991     48.023749999999993     47.787699999999994
H      48.864500000000000     48.471350000000001     48.213899999999995
H      47.135500000000000     48.682150000000000     47.284900000000000
H      47.570500000000003     47.736950000000000     48.780999999999999
H      48.373500000000000     47.317850000000000     47.219000000000001
