38

C      50.373699999999999     46.664049999999989     51.458599999999990
C      47.899999999999999     45.754849999999998     50.286899999999996
C      49.415100000000002     47.453449999999997     51.501199999999990
C      48.228900000000003     46.776149999999994     51.374099999999991
C      49.180100000000003     48.799249999999994     51.793100000000003
C      46.995600000000003     47.236449999999998     52.219400000000000
C      47.454599999999999     49.101549999999996     51.133400000000002
C      46.616399999999999     48.565249999999999     52.338000000000001
C      47.025500000000001     50.590150000000001     51.374099999999991
C      45.549399999999999     48.757950000000001     45.161399999999993
C      45.283700000000003     50.004749999999994     45.675199999999997
C      45.019599999999997     49.913350000000001     47.020599999999995
C      45.610700000000001     48.923350000000006     47.893799999999992
C      45.993400000000001     47.691650000000003     47.301699999999990
C      45.933900000000001     47.605150000000002     45.919499999999992
C      45.751700000000000     49.239449999999998     49.329799999999999
C      46.973700000000001     48.849349999999994     49.757399999999997
H      50.915799999999997     46.444350000000007     50.656100000000002
H      51.136699999999998     46.628750000000004     52.368699999999997
H      46.844999999999999     45.872850000000007     49.654499999999992
H      48.276000000000003     44.749649999999995     50.580399999999990
H      49.273600000000002     49.151649999999997     52.775599999999990
H      46.338200000000001     46.651350000000001     52.929099999999998
H      49.874800000000000     49.388050000000000     51.213500000000003
H      45.739400000000003     49.020149999999994     52.868900000000004
H      45.976399999999998     50.592149999999997     51.663400000000003
H      47.362900000000003     51.250350000000005     50.599100000000000
H      47.581699999999998     51.062149999999995     52.282499999999992
H      48.193100000000001     45.917049999999996     49.166699999999999
H      45.553500000000000     51.054449999999996     44.925300000000000
H      44.863300000000002     50.900150000000004     47.492600000000003
H      47.487499999999997     48.237649999999995     49.115900000000003
H      44.909199999999998     49.714549999999996     49.872399999999992
H      46.559100000000001     46.938150000000000     47.910999999999994
H      45.019300000000001     48.240649999999995     43.070900000000002
H      46.974100000000000     46.982549999999996     44.462100000000000
O      45.426800000000000     48.856050000000003     43.757100000000001
O      46.614200000000004     46.717750000000002     45.174699999999994
