18

C      46.749849999999995     49.232849999999992     47.607099999999996
C      46.989150000000002     48.282750000000000     46.561999999999998
C      48.100450000000002     47.499049999999997     46.645400000000002
C      48.881049999999995     47.392150000000001     47.779399999999995
C      48.645750000000000     48.339950000000002     48.717900000000000
C      49.401750000000000     48.287050000000001     50.034000000000006
H      49.673549999999999     46.724850000000004     45.648800000000001
H      45.432250000000003     49.118449999999996     45.616500000000002
H      50.567749999999997     45.570549999999997     47.942799999999998
H      49.141550000000002     49.274850000000001     50.553299999999993
H      50.491149999999998     48.313150000000000     49.962599999999995
H      49.156150000000004     47.381250000000001     50.521100000000004
H      45.580750000000002     50.429450000000003     48.296899999999994
N      47.729750000000003     49.344449999999995     48.547600000000003
O      48.693850000000005     46.756550000000004     45.671400000000006
O      46.270350000000001     48.501449999999998     45.446700000000007
O      45.659749999999995     49.970950000000002     47.602499999999999
O      50.000949999999996     46.435749999999999     47.791800000000009
