6

C      47.293249999999993     47.995249999999992     47.996899999999997
C      48.544349999999994     48.343249999999998     47.915199999999999
H      46.672449999999998     47.717650000000006     47.072599999999994
H      47.217149999999990     47.329250000000002     48.925200000000004
H      49.327550000000002     48.670749999999998     47.208500000000001
H      49.013149999999996     48.157849999999996     48.927400000000006
