15

C      50.321449999999992     47.343649999999997     47.026699999999991
C      48.798150000000000     47.802750000000003     47.411600000000007
C      48.267049999999998     46.965149999999994     48.347300000000004
C      48.028649999999999     48.786349999999999     46.855400000000003
C      46.216250000000002     48.331149999999994     48.295599999999993
C      46.968549999999993     47.258650000000003     48.834000000000003
C      46.776349999999994     49.177849999999992     47.295599999999993
H      50.386849999999995     46.383049999999997     46.407399999999996
H      50.824849999999998     47.356849999999994     47.944400000000002
H      48.797049999999999     49.225149999999999     46.225899999999996
H      45.175150000000002     48.566449999999989     48.693699999999993
H      46.547049999999999     46.819649999999996     49.774100000000004
H      45.990749999999998     49.982150000000004     46.729100000000003
H      48.690950000000001     46.017849999999996     48.737700000000004
H      50.485849999999999     47.960849999999994     46.320099999999996
