20

C      50.450600000000001     47.662149999999983     48.570799999999998
C      50.141000000000005     49.044549999999994     49.239000000000004
C      49.691700000000012     47.026850000000003     47.505200000000002
C      48.722999999999999     48.996249999999996     49.720900000000000
C      48.372399999999999     47.475450000000002     47.612100000000012
C      47.844700000000003     48.308050000000001     48.669400000000010
C      47.665100000000010     46.695450000000001     46.534199999999998
C      46.485200000000006     48.712449999999997     48.642700000000005
C      46.320599999999999     47.074750000000002     46.558900000000008
C      45.829900000000009     47.786049999999996     47.774200000000008
H      50.984999999999999     46.864849999999997     49.222999999999999
H      50.162600000000012     49.958949999999994     48.647100000000009
H      50.906100000000009     49.385050000000000     49.862800000000007
H      49.921100000000010     46.040349999999997     47.101100000000002
H      48.445800000000006     48.289149999999999     50.431899999999999
H      48.330800000000011     49.959650000000003     50.319900000000004
H      48.155100000000004     46.765949999999997     45.568100000000001
H      45.870900000000006     49.476750000000003     49.327800000000011
H      45.763800000000003     46.558950000000003     45.924300000000002
H      45.015000000000001     47.146250000000002     47.843200000000010
