44

C      49.035899999999991     47.359249999999989     46.428699999999985
C      48.150399999999998     47.227649999999997     47.613000000000000
C      52.995300000000000     47.226650000000006     49.153099999999995
C      52.146299999999997     47.167550000000006     50.216700000000003
C      50.430899999999994     47.188850000000002     46.456000000000003
C      48.666100000000000     46.928650000000005     48.917000000000002
C      52.317700000000002     47.218350000000001     47.962699999999998
C      50.712399999999995     47.254550000000009     50.296199999999999
C      50.950400000000002     47.016149999999996     47.777999999999992
C      50.020099999999999     47.046149999999997     48.948499999999996
C      48.292299999999997     47.878250000000008     45.271100000000004
C      47.068599999999996     48.620649999999998     45.263800000000003
C      46.165999999999997     47.883550000000000     46.176900000000003
C      46.756200000000000     47.256050000000002     47.395700000000005
C      44.666399999999996     48.060050000000004     46.222899999999996
C      44.044300000000000     48.986649999999997     45.245599999999996
C      42.873799999999996     49.853150000000014     45.623400000000004
C      47.250599999999999     50.073149999999998     44.783500000000004
C      52.521699999999996     46.950850000000003     51.727099999999993
C      45.857799999999997     46.244349999999997     48.079099999999997
C      51.090199999999996     47.198650000000001     45.098299999999995
H      54.198999999999998     47.269149999999996     49.310699999999997
H      47.901199999999996     46.906949999999995     49.777199999999993
H      53.130800000000001     47.739250000000013     47.162599999999998
H      50.045699999999997     47.664450000000002     51.128000000000000
H      48.895699999999998     48.165850000000006     44.412800000000004
H      44.524000000000001     49.634650000000008     44.243099999999998
H      43.386299999999999     48.216450000000009     44.778599999999997
H      41.801000000000002     49.420649999999995     45.369699999999995
H      42.794599999999996     50.148450000000011     46.678100000000001
H      42.953099999999999     50.643050000000002     44.840599999999995
H      46.379599999999996     50.577849999999998     45.247699999999995
H      48.146599999999999     50.348550000000003     45.111400000000003
H      47.113799999999998     50.108550000000008     43.697400000000002
H      52.126399999999997     45.854749999999996     51.667800000000000
H      51.937599999999996     47.582850000000008     52.302599999999998
H      53.549700000000001     47.069649999999996     51.977000000000004
H      46.294399999999996     45.356949999999998     48.421400000000006
H      45.251500000000000     46.632249999999999     48.946799999999996
H      50.657199999999996     46.393050000000002     44.141899999999993
H      52.036799999999999     47.259749999999997     45.377099999999999
H      50.751999999999995     48.057350000000000     44.444099999999992
H      45.037399999999998     46.018450000000001     47.300200000000004
O      44.011800000000001     47.560750000000013     47.101100000000002
