62

C      50.018499999999989     45.791799999999995     46.929744999999990
C      44.722700000000003     50.606000000000002     47.373625000000004
C      50.193799999999996     46.913600000000002     47.706724999999992
C      45.858000000000004     51.022399999999998     48.062375000000003
C      49.005700000000004     45.684300000000000     46.035187000000001
C      44.570300000000003     49.242100000000001     46.922224999999997
C      49.114000000000004     47.996800000000000     47.793424999999999
C      46.923400000000001     50.047000000000004     48.163345000000000
C      46.666399999999996     46.444499999999998     45.538100000000000
C      45.508300000000006     47.348800000000004     45.586008999999997
C      47.900300000000001     46.550100000000000     46.184848000000002
C      45.804199999999994     48.442300000000010     46.494734999999999
C      47.844800000000006     47.780400000000000     47.139274999999998
C      46.919899999999998     48.868299999999998     47.278464999999997
C      49.298600000000008     49.121000000000002     48.686495000000008
C      48.165300000000002     50.037600000000005     48.996515000000002
C      51.020899999999997     44.694600000000001     47.124305000000007
C      51.451400000000007     44.503800000000005     48.570625000000007
C      51.790400000000005     45.632100000000001     49.264094999999998
C      51.274600000000007     46.824300000000001     48.663404999999997
C      51.507099999999994     48.065400000000004     49.371004999999997
C      50.627000000000010     49.191600000000001     49.222174999999993
C      49.160600000000002     44.526800000000001     45.113114999999993
C      50.239000000000004     43.703899999999997     45.016314999999999
C      51.329500000000010     44.031300000000002     45.978260999999996
C      46.305400000000006     52.162300000000002     48.899595000000005
C      48.496499999999997     50.933300000000003     50.059285000000003
C      43.199600000000004     48.869800000000005     46.576614999999997
C      43.279499999999999     47.662500000000001     45.836180999999996
C      45.285200000000003     52.615000000000002     49.790634999999995
C      46.925899999999999     52.901599999999995     48.115994999999998
C      47.201999999999998     51.732400000000005     50.183005000000001
C      52.616200000000006     45.630299999999998     50.590194999999994
C      51.740099999999998     43.051700000000004     48.856755000000007
C      51.585599999999999     50.337100000000000     49.639105000000001
H      44.474100000000007     53.388399999999997     49.606684999999999
H      48.316299999999998     44.225299999999997     44.536415000000012
H      45.641999999999996     44.947099999999999     44.903815000000016
H      50.155100000000004     42.719200000000001     44.522514999999999
H      52.149900000000002     43.283499999999997     46.243544000000000
H      49.261099999999999     51.159700000000008     50.533034999999998
H      42.269999999999996     49.505400000000002     46.715535000000003
H      42.596699999999998     47.108499999999999     45.243415000000013
H      47.858599999999996     53.363500000000009     48.473314999999999
H      46.487899999999996     53.661200000000001     47.464675000000000
H      43.916499999999999     52.391900000000000     46.824125000000002
H      46.592500000000001     51.014400000000002     50.773254999999992
H      47.344099999999997     52.626200000000004     50.700344999999999
H      52.749300000000005     50.333300000000001     49.562485000000002
H      52.479900000000001     46.622300000000003     51.067115000000001
H      52.164300000000011     44.889600000000002     51.477485000000001
H      53.730000000000004     45.455900000000007     50.325614999999999
H      52.345700000000008     42.800000000000004     49.839865000000003
H      50.685500000000005     42.338799999999999     49.040205000000000
H      52.041100000000014     42.697000000000003     47.918475000000001
H      52.330700000000007     48.054899999999996     49.950415000000007
H      51.559300000000007     50.604800000000004     48.590535000000003
H      51.120800000000003     51.065800000000003     50.448324999999997
H      44.556500000000000     52.075600000000001     50.609375000000000
N      44.250600000000006     47.170800000000007     45.251415000000023
O      46.458500000000001     45.262599999999999     44.883615000000006
O      43.804800000000000     51.393000000000001     46.857495000000000
