16

C      48.883599999999987     45.530399999999993     47.153299999999987
C      48.063999999999993     45.907100000000000     48.250599999999999
C      49.103499999999997     48.275500000000001     47.670099999999998
C      48.333699999999993     47.365700000000004     48.527099999999997
C      48.878100000000003     49.681100000000001     47.831300000000006
C      47.316000000000003     48.073700000000002     49.070000000000000
C      47.891000000000005     50.342300000000009     48.698699999999995
C      46.992999999999995     49.423500000000004     49.266700000000000
H      49.332399999999993     44.569800000000001     46.925799999999995
H      48.903099999999995     46.236800000000002     46.260700000000000
H      50.013199999999998     47.937700000000007     47.200700000000005
H      47.821600000000004     45.503900000000002     49.258100000000006
H      49.134100000000004     50.013500000000008     46.851099999999995
H      46.694000000000003     47.299800000000005     49.739300000000000
H      47.979199999999992     51.430199999999999     48.634999999999998
H      45.986800000000002     49.802199999999999     49.727799999999995
