18

C      48.116599999999991     46.297499999999992     49.125099999999996
C      50.127199999999995     48.212699999999998     48.379700000000000
C      47.613899999999994     47.541200000000003     48.279699999999998
C      48.641900000000000     48.607799999999997     48.255499999999998
C      46.437199999999997     47.607700000000008     47.716600000000000
C      48.256200000000000     49.764800000000008     47.698900000000002
C      46.068999999999996     48.708900000000000     46.815899999999999
C      46.964999999999996     49.813699999999997     46.953400000000002
H      50.180399999999999     47.291600000000003     47.725400000000000
H      47.464799999999990     45.733100000000007     49.816699999999997
H      48.068499999999993     45.331199999999995     48.454099999999997
H      49.019999999999989     46.703100000000006     49.790300000000002
H      50.629999999999988     48.015400000000000     49.291499999999999
H      50.792999999999999     48.859300000000005     47.603499999999997
H      45.610499999999995     46.840800000000002     48.203200000000002
H      48.882799999999996     50.668800000000005     47.600099999999998
H      45.207000000000001     48.776300000000006     46.183300000000003
H      46.393599999999999     50.597999999999999     46.590299999999999
