6

C      48.083499999999994     48.281899999999993     48.672399999999989
C      48.100400000000008     47.729199999999999     47.386299999999991
H      48.113000000000000     47.521700000000003     49.554500000000004
H      47.510900000000007     49.242100000000001     48.944899999999990
H      47.364300000000000     47.835400000000000     46.445499999999996
H      48.635700000000000     46.757899999999999     47.231799999999993
