18

C      47.938749999999985     48.904699999999991     47.386614999999992
C      47.273850000000003     47.807899999999997     46.773394999999994
C      47.927349999999997     46.511199999999995     47.337964999999997
C      49.409749999999995     46.351799999999990     47.524825000000007
C      49.934549999999994     47.471699999999991     48.121025000000003
C      49.043450000000000     48.695999999999991     48.155135000000001
C      49.835450000000002     49.644100000000002     49.038075000000006
C      45.896049999999995     47.841000000000001     46.368155000000002
H      46.745650000000005     50.289299999999990     47.654615000000007
H      50.969249999999995     49.098799999999990     49.110775000000004
H      50.020649999999996     50.729700000000001     48.546235000000010
H      49.371050000000004     49.719699999999996     50.040845000000004
H      45.342949999999995     48.708300000000001     45.959154999999996
H      44.989449999999998     47.238300000000002     46.809815000000000
H      49.738250000000001     45.270299999999999     47.211385000000007
H      51.010550000000002     47.474299999999992     48.667305000000013
O      47.353649999999995     45.930099999999989     48.181485000000009
O      47.548049999999996     50.180099999999989     47.087554999999995
