6

C      48.503549999999990     48.084999999999994     48.442399999999992
C      47.557249999999996     47.683100000000010     47.494499999999995
H      49.527450000000002     48.366399999999999     47.992500000000000
H      48.103350000000006     48.537300000000002     49.502299999999998
H      46.472549999999998     47.462699999999998     47.692900000000002
H      47.762550000000005     47.677100000000010     46.497700000000002
