6

C      47.558599999999998     47.951399999999992     47.431449999999998
C      48.135000000000005     47.700100000000006     48.673249999999996
H      47.792699999999996     47.454999999999998     46.335650000000001
H      47.097800000000007     49.088300000000004     47.622550000000004
H      48.144700000000000     48.322300000000013     49.664349999999999
H      48.902199999999993     46.911699999999996     48.551950000000005
