6

C      47.819799999999987     48.022199999999991     48.714574999999989
C      47.314499999999995     48.084499999999998     47.597733999999996
H      48.915100000000002     47.929399999999994     48.813074999999998
H      47.737399999999994     49.083700000000000     49.211784999999992
H      47.084899999999998     46.916300000000000     47.054415000000020
H      47.623199999999990     48.796699999999987     46.788215000000008
