18

C      49.255949999999999     49.312799999999996     46.857099999999996
C      48.252250000000004     48.867800000000003     45.943400000000004
C      49.669150000000002     48.708900000000000     48.052199999999999
C      47.402349999999998     47.837500000000006     46.481099999999998
C      48.759050000000002     47.733999999999995     48.467399999999998
C      47.443449999999999     47.452500000000001     47.803000000000004
C      48.702950000000001     47.071899999999999     49.791799999999995
C      46.213350000000005     46.940799999999996     48.355000000000004
C      47.740449999999996     46.340599999999995     50.272500000000001
C      46.391149999999996     46.399600000000007     49.685800000000000
H      49.771450000000002     50.245999999999995     46.693899999999999
H      48.314050000000009     48.943600000000004     44.758200000000002
H      50.616249999999994     48.841800000000006     48.548500000000004
H      46.730950000000007     47.206900000000005     45.806200000000004
H      49.595950000000002     46.983599999999996     50.328900000000004
H      45.479550000000003     46.896400000000000     47.622799999999998
H      47.837350000000001     45.754000000000005     51.241799999999998
H      45.383750000000006     46.098700000000008     50.293500000000009
