20

C      46.305399999999985     47.252314999999989     45.180949999999989
C      48.124899999999997     46.791374999999995     50.861949999999993
C      46.557500000000005     46.587584999999997     46.367649999999998
C      47.518199999999993     46.479354999999998     49.533550000000005
C      47.649500000000003     47.480165000000000     46.909850000000006
C      47.894899999999993     47.272954999999996     48.296149999999997
C      48.435299999999998     48.512604999999994     46.289550000000006
C      48.939899999999994     48.026364999999998     48.882149999999996
C      49.346400000000003     49.355765000000005     47.045649999999995
C      49.582999999999998     49.242754999999995     48.366749999999996
H      46.481399999999994     48.327764999999999     45.149450000000002
H      45.654399999999995     46.978334999999994     44.373850000000004
H      47.610900000000001     47.374644999999994     51.626149999999996
H      49.445599999999999     47.792134999999988     49.924149999999997
H      46.230099999999993     45.619534999999999     46.673850000000002
H      46.634900000000002     45.729204999999993     49.711150000000004
H      49.030400000000000     46.620014999999995     51.103650000000002
H      48.636700000000005     48.554154999999994     45.287850000000006
H      49.824799999999996     50.380465000000001     46.756649999999993
H      50.345600000000005     49.723544999999994     48.913950000000000
