87

C      45.097399999999993     49.436099999999996     52.160049999999998
C      43.648899999999998     48.885600000000004     51.923850000000002
C      46.419400000000003     45.086599999999997     53.750749999999996
C      44.943399999999997     44.898500000000006     53.708849999999998
C      46.211399999999998     48.505900000000004     52.284749999999988
C      43.613199999999999     47.596200000000003     51.669250000000005
C      46.986100000000000     46.343399999999995     53.195949999999996
C      44.039499999999997     45.713699999999996     52.947349999999986
C      46.001799999999996     47.120399999999997     52.699449999999985
C      44.685400000000001     46.765800000000006     52.261749999999992
C      45.384200000000000     50.812000000000005     52.366150000000005
C      44.180100000000003     51.648699999999998     52.644949999999994
C      42.968200000000003     50.923999999999999     52.267650000000003
C      47.474600000000002     44.284900000000000     53.998750000000001
C      47.188899999999997     43.100800000000000     54.612349999999992
C      45.645500000000006     42.716500000000003     54.684749999999994
C      44.488900000000001     43.619900000000008     54.266850000000005
C      46.729899999999994     51.251799999999996     52.553049999999985
C      46.947600000000001     52.609600000000007     53.066749999999985
C      45.866300000000003     53.403900000000000     53.383650000000003
C      44.546599999999998     53.098199999999999     53.051749999999998
C      47.862699999999997     50.395900000000005     52.366649999999993
C      47.586100000000009     49.052500000000002     52.380250000000004
C      48.660099999999993     48.359900000000003     51.616249999999994
C      48.161099999999998     47.451900000000002     50.477850000000004
C      49.523900000000005     46.880000000000003     45.977149999999995
C      48.344600000000000     47.731699999999996     45.729450000000000
C      50.579700000000010     47.369499999999995     50.498850000000004
C      49.820700000000009     46.844500000000004     47.253450000000001
C      47.619000000000000     48.685099999999998     46.685850000000002
C      49.398000000000003     47.278299999999994     49.681349999999995
C      49.153700000000001     47.624600000000008     48.246949999999998
C      48.324100000000001     48.733799999999995     47.968549999999993
C      50.247099999999996     45.973300000000002     44.996650000000002
C      49.795999999999999     46.038800000000002     43.547749999999994
C      49.063699999999997     47.185300000000005     43.380749999999992
C      48.096399999999996     47.652700000000003     44.351150000000004
C      50.634700000000002     44.765899999999995     45.517650000000003
C      50.938299999999991     43.698500000000003     44.387550000000005
C      50.812300000000000     44.127299999999998     43.058350000000004
C      50.588700000000010     45.597900000000003     47.684550000000002
C      50.915900000000001     44.228500000000004     46.889250000000004
C      46.727100000000000     49.505000000000003     45.931249999999991
C      46.929400000000001     49.959499999999998     44.404749999999993
C      47.130699999999997     48.586099999999995     43.599549999999994
C      51.765799999999999     47.949700000000000     49.893950000000004
C      51.458000000000006     42.386900000000004     44.714950000000002
C      51.454799999999999     43.254600000000003     42.056150000000002
C      52.808000000000000     47.294500000000006     50.320549999999997
H      42.592599999999997     47.385100000000001     51.400049999999993
H      42.964799999999997     45.805900000000001     52.936750000000004
H      42.257399999999997     51.702599999999997     52.097349999999992
H      48.497800000000005     44.596300000000006     53.587949999999992
H      48.104300000000002     42.561200000000007     54.708749999999995
H      45.819499999999998     41.776500000000006     55.113349999999997
H      43.605499999999999     43.627400000000002     54.815849999999998
H      48.011100000000006     53.134499999999996     53.128850000000000
H      46.034999999999989     54.370100000000001     53.697949999999992
H      43.588799999999999     53.806699999999999     53.384950000000003
H      48.886600000000001     50.807400000000008     52.117549999999994
H      47.947099999999999     46.776299999999999     53.504749999999987
H      47.420200000000001     47.892199999999995     49.721450000000004
H      49.767299999999999     48.544599999999996     51.809749999999994
H      52.350699999999996     48.353000000000002     48.188649999999996
H      48.536999999999999     47.206300000000006     42.352949999999993
H      50.305599999999998     44.979300000000002     48.682749999999999
H      51.639599999999994     46.156500000000001     47.824650000000005
H      50.360700000000001     43.298899999999996     47.071650000000005
H      52.044800000000002     44.295999999999999     46.841149999999999
H      45.747199999999999     49.790299999999995     46.341149999999999
H      50.132100000000001     49.785699999999999     48.830349999999996
H      47.641699999999993     50.588200000000008     44.741050000000001
H      46.284500000000001     50.683500000000002     44.095450000000000
H      46.160899999999991     47.890300000000003     43.533749999999998
H      50.482000000000006     47.062999999999995     51.606949999999998
H      51.433000000000000     41.905800000000006     45.770250000000004
H      51.244099999999996     41.629899999999999     43.983350000000002
H      51.065300000000001     42.256599999999999     42.252549999999999
H      52.575600000000001     43.377699999999997     42.010249999999999
H      47.213999999999992     49.103200000000008     42.457350000000005
H      51.161600000000000     43.450800000000008     40.886650000000003
H      53.025199999999991     46.769600000000004     51.318849999999998
H      53.742600000000003     47.832699999999996     50.200350000000000
N      42.678300000000000     49.708000000000006     52.006249999999994
N      50.279400000000003     45.213500000000003     42.692449999999994
O      51.779299999999999     48.978699999999996     48.894149999999996
S      48.722400000000000     50.415399999999998     48.523650000000004
