6

C      48.088999999999992     48.322249999999983     48.154599999999988
C      48.310099999999991     47.266749999999995     47.569099999999992
H      48.346600000000002     49.281950000000002     47.617499999999993
H      47.884399999999999     48.366549999999997     49.403599999999997
H      47.436199999999999     46.718049999999998     47.656099999999995
H      48.563800000000001     47.140349999999991     46.596400000000003
