6

C      48.269839999999995     47.877409999999998     47.482449999999986
C      47.908070000000002     48.321970000000007     48.681150000000002
H      48.686459999999997     48.273489999999995     46.583649999999992
H      47.826880000000003     46.843000000000004     47.190150000000003
H      47.313540000000003     47.697730000000007     49.416350000000008
H      48.010170000000002     49.156999999999996     49.104649999999992
