20

C      49.597399999999993     49.982899999999994     49.649749999999997
C      46.155700000000003     47.029600000000002     46.339850000000006
C      48.856699999999996     45.638399999999997     47.409950000000002
C      47.278300000000002     47.725499999999997     47.118249999999996
C      48.467700000000001     47.032299999999992     47.308050000000001
C      46.825200000000002     49.041499999999999     47.384049999999995
C      49.391600000000004     48.117899999999992     47.953250000000004
C      47.401200000000003     49.504899999999992     48.606349999999999
C      48.726400000000005     49.028700000000001     48.774350000000005
H      48.898100000000007     50.296599999999998     50.566650000000003
H      50.395900000000005     49.607399999999998     50.066350000000007
H      45.619800000000005     47.476600000000005     45.433349999999997
H      49.929400000000001     50.879300000000001     48.932449999999996
H      46.660500000000006     46.503799999999998     45.557750000000006
H      49.882600000000004     45.120699999999999     47.378650000000000
H      47.746400000000001     45.225999999999999     47.655049999999996
H      45.857400000000005     49.358900000000006     47.085550000000005
H      50.432200000000002     47.979199999999992     48.082950000000004
H      47.292400000000001     50.373899999999992     49.151150000000008
H      45.567799999999998     46.272900000000000     46.867350000000009
