6

C      47.559100000000001     47.848299999999995     47.561269999999993
C      48.311399999999999     48.131599999999992     48.562509999999996
H      46.857999999999997     47.120800000000003     47.507289999999998
H      47.664800000000007     48.670999999999992     46.628509999999999
H      48.190900000000006     47.429699999999997     49.371490000000001
H      49.142000000000003     48.879199999999997     48.545650000000002
