6

C      47.961749999999995     48.564599999999999     48.219399999999993
C      47.944250000000004     47.375000000000007     47.775199999999998
H      48.670150000000000     49.303000000000004     47.876200000000004
H      47.161250000000003     48.839700000000001     48.794800000000002
H      47.313750000000006     46.696999999999996     48.189299999999996
H      48.838749999999997     47.024300000000004     47.205199999999998
