26

C      49.935749999999999     50.118349999999992     50.001249999999999
C      46.877450000000003     49.550349999999995     46.668450000000000
C      46.450349999999993     47.010350000000003     49.637449999999994
C      47.179250000000003     48.636649999999989     47.882950000000001
C      46.579349999999998     47.268450000000001     48.192850000000000
C      48.318450000000006     48.827149999999989     48.713749999999997
C      46.255149999999993     46.310949999999991     47.185150000000000
C      49.167949999999998     49.897549999999995     49.088749999999997
C      49.535649999999997     51.034449999999993     48.014649999999996
C      46.103349999999999     45.244850000000000     49.436249999999994
C      46.234149999999993     45.166749999999993     47.944349999999993
H      48.880350000000000     51.241450000000000     47.308450000000001
H      50.856550000000006     49.647449999999992     49.594450000000002
H      50.106450000000002     51.239449999999991     50.282450000000004
H      45.447550000000000     47.509549999999990     49.903150000000004
H      45.143449999999994     45.540250000000000     49.806450000000005
H      46.189050000000002     49.572449999999989     45.717549999999996
H      46.998250000000006     50.578850000000003     47.132050000000000
H      47.807549999999999     49.417249999999996     45.918749999999996
H      47.049349999999997     47.611350000000002     50.120849999999997
H      48.700650000000003     47.853949999999998     48.882950000000001
H      46.111950000000000     46.470549999999989     46.009449999999994
H      50.555249999999994     50.945949999999996     47.616049999999994
H      49.871549999999992     51.850650000000002     48.981249999999996
H      46.863849999999992     44.533549999999991     50.098750000000003
H      46.480749999999993     44.149349999999998     47.519050000000000
