5

C      48.157950000000000     47.915899999999993     47.679774999999992
H      47.145350000000001     47.731800000000000     47.205824999999997
H      48.473149999999997     47.995399999999997     48.794175000000003
H      48.579749999999997     48.859299999999998     47.307175000000001
H      48.854649999999999     47.140700000000002     47.406675000000000
