5

C      47.946700000000000     48.129449999999991     48.110699999999994
H      48.010700000000000     48.765750000000004     47.141100000000002
H      48.977599999999995     47.743450000000003     48.587299999999992
H      47.022400000000005     47.177950000000003     47.841700000000003
H      47.512000000000000     48.822049999999997     48.858899999999998
