5

C      47.887000000000000     48.505049999999990     47.842799999999997
H      47.687300000000000     48.383850000000002     48.730600000000003
H      47.755200000000009     47.339550000000003     47.366000000000007
H      47.014699999999998     48.656050000000000     47.269399999999997
H      48.985300000000002     48.660449999999997     47.660299999999999
