21

C      49.459999999999994     49.465449999999997     46.916899999999991
C      49.032099999999993     50.054850000000002     48.335400000000000
C      48.958599999999997     47.997550000000004     46.695000000000000
C      49.609199999999994     48.873450000000005     49.281999999999996
C      48.460199999999993     47.289550000000006     47.701999999999998
C      48.511699999999998     47.992550000000001     49.021100000000004
C      47.947700000000005     45.908650000000002     48.209999999999994
C      47.234400000000001     48.419850000000004     49.590000000000003
C      47.048600000000000     46.080050000000000     49.264699999999991
C      46.339599999999997     47.352450000000005     49.325599999999994
H      50.682600000000001     49.724750000000000     46.419399999999996
H      47.992899999999999     50.182750000000006     48.349999999999994
H      49.812899999999992     50.875649999999993     48.758399999999995
H      48.909500000000001     47.700550000000000     45.582599999999999
H      48.761099999999992     49.999550000000013     46.149900000000002
H      49.548799999999993     49.204150000000006     50.417400000000001
H      50.782400000000003     48.871650000000002     49.043799999999990
H      48.847400000000000     45.124350000000007     47.994900000000001
H      46.987000000000002     49.555350000000004     49.945899999999995
H      46.627400000000002     45.147450000000006     49.328800000000001
H      45.217599999999997     47.366350000000004     49.244900000000001
