6

C      48.054429999999989     47.993299999999991     48.597149999999999
C      48.132649999999998     48.492700000000013     47.478149999999999
H      48.439290000000000     47.099400000000003     49.247749999999996
H      47.273139999999998     48.900599999999997     49.119349999999997
H      48.873770000000000     48.120500000000007     46.752250000000004
H      47.126230000000000     48.606900000000010     46.966449999999995
