55

C      52.825199999999995     44.342599999999990     46.617599999999989
C      44.359500000000004     50.335100000000004     46.066299999999998
C      44.457299999999996     50.383900000000004     47.564200000000000
C      51.793900000000001     44.910599999999995     45.832899999999995
C      52.526599999999995     44.516900000000000     48.022300000000001
C      45.188200000000002     49.516100000000002     45.335200000000000
C      45.326799999999999     49.505199999999995     48.222999999999999
C      50.646899999999995     45.663599999999995     46.191900000000004
C      51.665500000000002     45.821400000000004     49.707400000000007
C      50.682499999999997     46.446000000000005     50.365800000000007
C      48.372499999999995     47.471399999999996     50.444800000000001
C      47.318999999999996     48.094699999999996     49.639499999999998
C      51.372199999999999     45.328499999999998     48.360900000000001
C      49.319600000000001     46.869099999999996     49.684399999999997
C      46.271200000000000     48.738899999999994     45.969999999999999
C      46.289899999999996     48.742299999999993     47.487899999999996
C      50.352499999999999     45.891600000000004     47.563699999999997
C      47.438300000000005     48.118000000000002     48.099299999999999
C      48.475100000000005     47.578399999999995     47.391500000000008
C      49.493400000000001     46.839099999999995     48.267399999999995
C      45.161600000000000     49.390700000000002     49.724199999999996
C      46.249800000000000     48.759800000000006     50.222899999999996
C      43.507500000000000     51.577400000000004     47.866699999999994
C      42.773699999999998     52.590899999999998     46.900500000000008
C      43.873899999999999     49.934699999999999     50.289299999999997
C      53.372400000000006     43.508900000000004     48.944500000000005
C      53.201299999999996     44.038300000000000     50.367599999999996
C      53.038599999999995     45.517000000000003     50.342299999999994
C      43.432700000000004     49.417999999999999     51.458500000000001
C      41.853600000000007     52.087700000000005     46.372799999999998
H      53.634300000000003     43.756800000000005     46.242699999999999
H      43.962700000000005     51.159500000000001     45.524299999999997
H      51.756899999999995     45.174799999999998     44.604299999999995
H      45.041900000000005     49.284799999999997     44.337800000000001
H      49.977100000000000     45.936799999999998     45.416499999999999
H      50.444099999999999     46.864799999999995     51.200100000000006
H      48.268200000000000     47.365500000000004     51.570899999999995
H      46.402999999999999     48.665699999999994     51.364199999999997
H      44.100000000000001     52.266799999999996     48.376900000000006
H      42.716299999999997     51.056300000000000     48.365200000000002
H      43.334899999999998     53.559199999999997     46.743800000000007
H      43.155600000000000     50.471399999999996     49.742400000000004
H      54.274499999999996     43.307700000000004     48.476500000000001
H      52.925500000000007     42.440800000000003     48.818399999999997
H      52.270100000000006     43.679600000000001     50.869500000000002
H      54.036499999999997     43.695399999999999     51.178200000000004
H      53.836199999999998     45.907900000000005     49.622799999999998
H      53.187700000000000     46.072399999999995     51.400700000000001
H      44.261199999999995     48.853400000000001     51.912099999999995
H      42.366599999999998     49.598400000000005     51.770700000000005
H      41.725500000000004     50.972400000000000     46.294899999999998
H      41.857499999999995     52.186699999999995     45.232700000000008
H      48.594299999999997     47.624100000000006     46.395700000000005
H      46.407199999999996     48.132700000000007     44.087900000000005
N      46.933600000000006     48.094100000000005     45.078400000000002
