50

C      51.473115000000000     47.902849999999994     43.962949999999992
C      51.905325000000005     47.403550000000003     45.320349999999998
C      44.150154999999991     47.274749999999997     51.878449999999994
C      45.457155000000000     46.788750000000000     52.301549999999999
C      49.715645000000002     46.004049999999999     44.786849999999994
C      43.990755000000007     50.427050000000001     47.227049999999998
C      49.800475000000006     45.340750000000000     46.062649999999998
C      49.346655000000005     47.429549999999999     44.717049999999993
C      45.023255000000006     50.142949999999999     46.251349999999995
C      44.006755000000005     47.898550000000000     50.556549999999994
C      46.657445000000003     46.984850000000002     51.443049999999992
C      44.072055000000020     49.486350000000002     48.273450000000004
C      49.210835000000003     45.392650000000003     48.311550000000004
C      48.382975000000002     45.864249999999998     49.336649999999999
C      47.409495000000007     49.139550000000000     45.556249999999999
C      49.265235000000004     46.226950000000002     47.121450000000003
C      48.491995000000003     48.179850000000002     45.679750000000006
C      46.203384000000007     49.389550000000000     46.334449999999997
C      45.030455000000032     47.467649999999999     49.672949999999993
C      46.261428000000002     46.933450000000001     50.112050000000004
C      45.181355000000011     48.655050000000003     48.653449999999999
C      47.361205000000005     46.795749999999998     48.973649999999999
C      48.498155000000004     47.517049999999998     46.932650000000002
C      46.216412000000005     48.673649999999995     47.637350000000005
C      47.281265000000005     47.606150000000000     47.786350000000006
C      49.879875000000006     45.229250000000000     43.434550000000002
C      44.816055000000013     50.582549999999998     44.667250000000003
C      50.025835000000001     48.134149999999991     43.533450000000002
H      45.370655000000006     50.213950000000004     43.771749999999997
H      51.972274999999996     47.173650000000002     43.206150000000001
H      52.152074999999996     46.169850000000004     45.291649999999997
H      51.925895000000011     49.005850000000009     43.897349999999996
H      51.357295000000001     47.550049999999999     46.279149999999994
H      53.098545000000001     47.552350000000004     45.597550000000005
H      43.203455000000027     47.496450000000003     52.558950000000003
H      42.901454999999999     50.659950000000009     46.986250000000005
H      49.969285000000006     44.292349999999999     46.184750000000001
H      43.408555000000014     48.667450000000002     50.264149999999994
H      47.616255000000002     47.286250000000003     51.984450000000002
H      43.419155000000003     49.646450000000002     49.117950000000000
H      49.968745000000006     44.566949999999999     48.605049999999999
H      48.428925000000007     45.543350000000004     50.409950000000002
H      47.430495000000001     50.043450000000007     44.786650000000002
H      50.886625000000002     44.689850000000000     42.997949999999996
H      45.068854999999985     51.707650000000001     44.457550000000005
H      43.754154999999997     50.268050000000002     44.219149999999999
H      49.909635000000002     47.703049999999998     42.596950000000000
H      49.910385000000005     49.229749999999996     43.847349999999999
O      48.984425000000002     45.477850000000004     42.674349999999997
O      45.397654999999986     46.350149999999999     53.403050000000000
