6

C      48.405556949999990     47.978049999999989     48.498349999999995
C      47.635856949999997     48.092649999999992     47.455449999999999
H      48.112656949999995     47.217849999999999     49.362049999999996
H      49.388343049999996     48.358649999999997     48.744450000000001
H      47.916956949999992     48.782150000000001     46.637950000000004
H      46.611656950000004     47.590849999999996     47.456049999999991
