16

C      49.641849999999991     47.859449999999995     46.533699999999996
C      46.632850000000005     47.240749999999998     45.899500000000003
C      48.543949999999995     47.396149999999999     47.347999999999992
C      47.132049999999992     47.151649999999997     47.029699999999998
C      49.101950000000002     47.640949999999997     48.725099999999998
C      46.377849999999995     47.530750000000005     47.983100000000000
C      48.350449999999995     48.491449999999993     49.512599999999999
C      47.055350000000004     48.464950000000002     48.882899999999999
H      50.705050000000000     47.868649999999995     47.020899999999997
H      49.671149999999997     47.510849999999998     45.527600000000000
H      46.976450000000000     48.462350000000001     45.543799999999997
H      45.579750000000004     46.882150000000003     45.745699999999999
H      50.306449999999998     47.501950000000001     49.112200000000009
H      45.294950000000000     47.540649999999999     47.646700000000003
H      48.858450000000005     49.004950000000001     50.472400000000000
H      46.408749999999998     49.117849999999997     49.505100000000006
