6

C      47.273899999999998     48.206799999999987     47.762749999999997
C      48.466200000000008     47.795800000000000     48.107250000000001
H      47.174600000000005     49.214600000000004     47.605650000000004
H      46.585400000000000     47.593500000000006     47.527549999999998
H      48.831000000000003     46.785399999999996     48.460550000000005
H      49.414600000000000     48.413799999999995     48.472450000000002
