20

C      46.842899999999986     49.013849999999991     50.147899999999993
C      46.596499999999992     50.053850000000004     49.051200000000001
C      48.323300000000003     48.119549999999997     49.616799999999998
C      46.566999999999993     49.580050000000007     47.679699999999997
C      48.435100000000006     47.893149999999999     48.135300000000001
C      47.471900000000005     48.489849999999997     47.263599999999997
C      49.412500000000009     46.903250000000007     47.669699999999999
C      47.258700000000005     47.809549999999994     46.004899999999999
C      49.092299999999994     46.160850000000003     46.482900000000001
C      47.886700000000005     46.553549999999994     45.811199999999999
H      46.788499999999999     49.319250000000004     51.069099999999999
H      46.329499999999996     48.078750000000007     49.829499999999996
H      46.015000000000001     50.876150000000003     48.996899999999997
H      48.585200000000000     47.080949999999994     50.194399999999995
H      48.812700000000007     49.047350000000002     50.026199999999996
H      45.836799999999997     50.083250000000000     47.032100000000000
H      50.163200000000003     46.701050000000002     48.444099999999999
H      46.353499999999997     48.351750000000003     45.882300000000001
H      49.396100000000004     45.123849999999997     46.533799999999999
H      47.457099999999997     45.971349999999994     44.930900000000001
