21

C      48.199600000000004     46.292259999999999     48.216499999999989
C      47.260400000000004     45.393699999999995     48.066199999999995
C      48.210599999999999     46.980469999999997     46.832599999999999
C      46.854400000000012     47.990250000000003     49.164000000000001
C      48.110200000000006     48.522989999999993     47.173800000000000
C      47.589300000000009     48.753209999999996     48.528599999999997
C      48.964600000000004     49.328440000000001     46.504999999999995
C      48.074300000000008     50.023240000000001     49.226100000000002
C      49.313800000000001     50.597740000000002     47.275300000000001
C      49.126000000000005     50.763239999999996     48.827299999999994
H      46.797900000000013     46.690939999999998     46.217999999999996
H      48.823100000000011     46.622749999999996     49.134399999999999
H      46.908200000000008     45.238450000000000     46.988299999999995
H      46.905300000000011     44.497960000000006     48.752699999999997
H      49.128700000000009     46.391329999999996     46.155999999999999
H      46.031900000000007     47.428240000000002     48.560400000000001
H      47.198100000000011     47.984719999999996     50.191500000000005
H      49.790800000000004     49.126909999999995     45.808499999999995
H      47.274200000000008     50.220939999999999     50.093199999999996
H      49.968099999999993     51.398139999999998     46.895499999999998
H      49.534400000000005     51.502039999999994     49.366299999999995
