20

C      48.476749999999996     45.908499999999989     47.795199999999987
C      48.722850000000001     44.918699999999994     48.723399999999998
C      48.090350000000001     46.767299999999999     46.740699999999990
C      47.592050000000000     47.940199999999997     50.097899999999996
C      47.737249999999996     47.974199999999996     47.366599999999991
C      47.230350000000001     48.452199999999998     48.747000000000000
C      47.580550000000002     48.811599999999991     46.192700000000002
C      46.785050000000005     49.833199999999998     48.784499999999994
C      47.159650000000006     50.151999999999994     46.512699999999995
C      46.792750000000005     50.716099999999997     47.740799999999993
H      46.502450000000003     47.752799999999986     50.396099999999990
H      47.842449999999999     44.774099999999997     49.364400000000003
H      49.770149999999994     44.367799999999995     48.769300000000001
H      47.710850000000001     46.252099999999992     45.753500000000003
H      48.038050000000005     48.771799999999992     50.809100000000001
H      48.181649999999998     46.777600000000000     49.994900000000001
H      48.208750000000002     48.752699999999997     45.190899999999999
H      46.229850000000006     49.931599999999996     49.781099999999995
H      47.084449999999997     50.823499999999989     45.686799999999991
H      46.262149999999998     51.632200000000005     47.940500000000000
