17

C      47.398699999999991     48.121649999999995     47.104849999999999
C      48.811200000000007     48.353049999999996     46.974150000000002
C      49.642800000000001     47.175350000000002     47.314749999999997
C      49.142800000000001     45.941350000000000     47.205450000000006
C      47.773200000000003     45.817749999999997     46.954550000000005
C      46.775500000000001     46.821550000000002     46.932250000000003
C      46.509900000000002     49.159050000000008     47.703049999999998
C      46.981800000000000     50.350650000000002     48.543050000000001
H      49.195699999999995     49.464250000000000     46.782550000000008
H      50.551600000000001     47.543750000000003     47.598549999999996
H      50.081499999999998     45.300950000000000     47.561650000000007
H      47.302100000000003     44.809950000000001     47.265250000000002
H      45.898899999999998     46.734450000000002     46.339549999999996
H      46.735399999999998     50.149349999999998     49.660450000000004
H      46.367400000000004     51.190049999999999     48.151850000000003
H      47.899099999999997     50.843249999999998     48.248449999999998
O      45.448399999999999     48.732050000000001     48.098450000000007
