17

C      50.009799999999991     48.444199999999981     47.289899999999989
C      47.434100000000001     46.816499999999998     45.877899999999997
C      48.585599999999999     47.991799999999991     47.835899999999988
C      47.421900000000001     47.652799999999992     47.021999999999998
C      48.486100000000008     48.633899999999990     49.063799999999993
C      46.028000000000006     47.710699999999996     47.712799999999994
C      47.185800000000000     48.322899999999997     49.803199999999997
C      46.069200000000002     47.951599999999992     48.996600000000008
H      50.863000000000000     48.759200000000000     48.096799999999995
H      46.431400000000004     47.051600000000001     45.088000000000001
H      50.082599999999999     48.102699999999992     46.322899999999997
H      50.049599999999998     49.705700000000000     47.268899999999995
H      48.259200000000000     46.294300000000000     45.292600000000000
H      49.377800000000008     49.219400000000000     49.496199999999995
H      45.137000000000000     47.402200000000001     47.131599999999999
H      47.353700000000003     48.692900000000002     50.911999999999999
H      45.247500000000002     47.930299999999995     50.066399999999994
