6

C      47.495799999999988     47.386350000000000     48.179699999999997
C      48.423399999999994     48.364350000000002     48.184600000000010
H      46.664099999999998     47.100350000000006     47.365099999999998
H      48.200799999999994     46.583449999999999     48.408999999999999
H      48.356999999999992     49.416550000000001     47.807900000000004
H      49.335900000000002     48.059150000000002     48.634900000000002
