17

C      49.120649999999998     49.946049999999993     47.249399999999994
C      47.307249999999996     48.024950000000004     45.975700000000003
C      48.711250000000007     48.588350000000005     47.871600000000001
C      47.881850000000000     47.625249999999994     47.215299999999999
C      49.222349999999992     48.374449999999996     49.127399999999994
C      47.030349999999999     46.725549999999998     47.983099999999993
C      48.723849999999999     47.187650000000005     49.737899999999996
C      47.789150000000006     46.314349999999997     49.102699999999999
H      49.674149999999997     50.507450000000006     48.091999999999999
H      49.524749999999997     49.572149999999993     46.222600000000000
H      48.272549999999995     50.596350000000001     47.187600000000003
H      47.989050000000006     48.992350000000002     45.755300000000005
H      46.924450000000007     47.281649999999999     45.361400000000003
H      49.895849999999996     49.006349999999998     49.665399999999991
H      46.104150000000004     46.210349999999998     47.464799999999997
H      49.113550000000004     46.831649999999996     50.638599999999997
H      48.101050000000001     45.403649999999999     49.715800000000002
