9

C      47.753699999999995     48.185099999999991     48.672204999999977
C      46.903499999999994     49.086500000000008     49.051189999999984
C      48.634199999999993     47.296500000000002     48.014679999999991
H      47.762899999999988     46.985500000000002     46.120780000000003
H      49.566500000000005     47.775399999999998     48.380579999999988
H      46.746200000000002     49.656500000000001     49.879219999999997
H      46.433499999999995     49.726900000000001     48.319779999999973
H      48.721999999999994     46.273099999999999     48.474979999999988
O      48.677800000000005     46.961199999999998     46.486579999999996
