18

C      49.140199999999993     46.587699999999991     49.181949999999993
C      47.450600000000001     45.854500000000002     46.922150000000002
C      48.455200000000005     47.779699999999991     48.475549999999998
C      47.637900000000002     47.294799999999995     47.364850000000004
C      48.122700000000002     49.004599999999996     49.195250000000001
C      46.834600000000002     48.401100000000000     46.769250000000000
C      47.314799999999998     49.929100000000005     48.560949999999998
C      46.744800000000005     49.680399999999992     47.247349999999997
H      47.486400000000003     45.055499999999995     47.569749999999999
H      48.307200000000002     45.801500000000004     49.649649999999994
H      49.585200000000000     47.470299999999995     50.015850000000000
H      50.039600000000000     46.409400000000005     48.429749999999999
H      46.394800000000004     45.655699999999996     46.703649999999996
H      47.820000000000000     45.656900000000000     45.899950000000004
H      48.598800000000004     49.316299999999998     50.115549999999999
H      46.297300000000000     48.059799999999996     45.884450000000001
H      47.163800000000002     50.944500000000005     49.074649999999998
H      45.960400000000000     50.356099999999998     46.639849999999996
