20

C      45.647449999999992     47.410649999999990     49.420649999999995
C      46.449149999999996     50.293150000000004     48.264249999999997
C      46.740549999999992     46.659150000000004     49.066449999999996
C      46.279449999999990     49.307350000000007     47.413150000000002
C      47.774549999999998     47.203650000000003     48.198450000000001
C      47.421749999999996     48.320950000000003     47.256949999999996
C      48.957249999999995     46.382550000000002     47.927050000000001
C      48.348649999999999     49.052450000000000     46.507649999999998
C      49.782049999999998     47.305250000000008     47.082650000000001
C      49.659949999999995     48.493350000000000     46.397250000000000
H      45.316449999999996     48.322849999999995     49.286549999999998
H      45.000149999999998     46.813549999999999     50.252749999999999
H      45.377749999999999     50.828650000000003     48.452549999999995
H      46.989150000000002     45.810949999999998     49.755949999999991
H      47.345349999999989     50.349650000000004     49.077549999999995
H      45.308149999999998     48.865150000000007     47.154150000000001
H      49.100849999999987     45.171349999999997     48.370750000000001
H      48.201149999999998     49.865050000000004     45.763750000000002
H      50.999850000000002     47.472249999999995     47.138349999999996
H      50.476049999999994     48.721750000000007     45.747250000000001
