11

C      48.848349999999996     47.095499999999987     47.785449999999983
C      48.413150000000009     48.430199999999992     47.887049999999995
C      46.862350000000006     48.529699999999998     48.324049999999993
H      48.426750000000006     46.371800000000000     48.549050000000001
H      49.976250000000000     47.315899999999992     48.067050000000002
H      48.741550000000004     49.137499999999996     46.798849999999995
H      48.992350000000009     46.875700000000002     46.690750000000001
H      48.613450000000007     49.171900000000001     48.625250000000001
H      46.023750000000000     48.263299999999994     47.746450000000003
H      46.685650000000003     47.988599999999998     49.309249999999999
H      46.610150000000004     49.628200000000000     48.484149999999993
