18

C      47.367350000000002     46.225249999999988     49.078829999999989
C      48.893250000000002     48.671949999999995     50.278629999999993
C      47.972850000000001     47.462350000000001     48.268629999999995
C      48.853150000000007     48.460850000000008     48.801729999999992
C      47.932849999999995     47.184650000000005     46.942709999999998
C      49.296250000000008     49.556749999999994     48.036929999999998
C      48.589649999999999     47.977850000000004     46.002509999999994
C      49.088150000000006     49.190849999999998     46.530089999999994
H      46.231649999999995     46.406350000000003     49.246029999999990
H      47.214850000000006     45.383449999999996     48.253529999999998
H      49.768350000000005     49.323950000000011     50.673029999999997
H      47.470649999999999     47.556249999999991     50.894530000000003
H      47.291350000000001     46.199550000000002     46.696699999999993
H      49.593049999999998     50.616550000000004     48.319129999999994
H      48.586350000000003     47.583650000000006     44.871669999999995
H      49.727550000000001     50.057649999999995     45.988819999999997
H      47.969450000000002     46.072350000000000     49.952529999999996
N      48.194949999999999     48.125850000000000     51.128330000000005
