65

C      47.901099999999985     45.651299999999992     49.842724999999987
C      47.683599999999998     46.621699999999997     50.856414999999991
C      46.821799999999996     49.055299999999995     46.380093999999993
C      47.865300000000005     49.657699999999998     47.260134999999991
C      46.726100000000002     45.389299999999999     48.912344999999995
C      46.688099999999991     47.633400000000002     50.391424999999991
C      45.723900000000000     48.482800000000005     47.009644999999992
C      48.065300000000008     48.777099999999997     48.384614999999989
C      45.804599999999994     47.683599999999998     48.156874999999992
C      46.803399999999996     48.379899999999999     49.087564999999991
C      49.084199999999996     45.087200000000003     49.683004999999994
C      49.506200000000007     44.362900000000003     48.382994999999994
C      49.762799999999999     45.998100000000001     52.110324999999996
C      48.732799999999997     46.853999999999999     51.877194999999993
C      47.095500000000001     49.039300000000004     44.921545000000016
C      47.543099999999995     50.247300000000003     44.315544999999979
C      48.338099999999997     50.928899999999999     45.175645000000010
C      48.680400000000006     50.553999999999995     46.428706999999989
C      45.368600000000001     46.325700000000005     48.571344999999994
C      46.538100000000000     44.205900000000000     48.270764999999990
C      50.044399999999996     45.004899999999999     50.921574999999983
C      45.631799999999998     48.146700000000003     51.167094999999982
C      44.765699999999995     48.648199999999996     51.942374999999991
C      48.274999999999991     48.104199999999999     52.712285000000001
C      44.461500000000001     48.228500000000004     46.128061999999993
C      47.261200000000002     47.615600000000001     42.916244999999996
C      46.776799999999994     47.904900000000005     44.018644999999992
C      49.389899999999997     48.730300000000000     49.159324999999988
C      49.113699999999994     52.736499999999999     47.825004999999990
C      49.502200000000002     51.785499999999999     46.841068999999990
C      48.793599999999998     44.328800000000001     47.202954999999989
C      50.726600000000005     43.546900000000001     48.724494999999990
C      51.597000000000008     42.680199999999999     47.963984999999994
H      49.433099999999996     53.814599999999999     48.088784999999994
H      49.531800000000004     44.141900000000000     51.269824999999990
H      50.801800000000000     45.891799999999996     52.804414999999999
H      48.765500000000003     51.815500000000007     44.742545000000000
H      45.096999999999994     46.728299999999997     49.548974999999992
H      44.454700000000003     45.988999999999997     48.002564999999990
H      47.250100000000003     43.309199999999997     48.173334999999994
H      45.678799999999995     44.203800000000001     47.511104999999993
H      51.046899999999994     45.055500000000002     50.573715000000000
H      47.640999999999991     48.115200000000002     53.698654999999995
H      49.888499999999993     47.602699999999999     49.238634999999995
H      43.853600000000000     48.814799999999998     51.453354999999995
H      44.677199999999999     48.378599999999999     52.984784999999995
H      49.055700000000002     48.665600000000005     52.355874999999990
H      47.542699999999996     48.716299999999997     52.185854999999997
H      44.128699999999995     49.155099999999997     45.710945000000002
H      44.701899999999995     47.250499999999995     45.524945000000010
H      47.213200000000001     46.553800000000003     42.484045000000016
H      47.546599999999998     48.578499999999998     42.301345000000005
H      45.989699999999999     47.248399999999997     44.284645000000019
H      43.559299999999993     47.949800000000003     46.595729999999989
H      49.213600000000000     49.218100000000000     50.079384999999995
H      50.279699999999991     49.277700000000003     48.679184999999990
H      48.709400000000002     52.392599999999995     48.540074999999995
H      50.055900000000008     52.378700000000002     46.082685999999988
H      49.220500000000001     43.885100000000001     46.261618999999989
H      47.763400000000004     44.903500000000001     46.929234999999991
H      51.318500000000000     43.542600000000000     49.723534999999991
H      47.904799999999994     51.170700000000004     42.535245000000010
H      52.440700000000007     42.185400000000001     48.435224999999988
H      51.152100000000004     42.459499999999998     46.994794999999989
O      47.633399999999995     50.322600000000001     42.940044999999998
