20

C      47.067599999999992     46.674249999999986     46.318979999999989
C      46.730999999999995     48.001649999999998     45.700679999999991
C      46.643500000000003     46.990449999999996     47.802475999999999
C      47.483100000000000     49.046650000000000     46.065680000000000
C      47.761099999999999     47.857749999999996     48.366126999999992
C      48.116100000000003     48.847650000000002     47.378579999999999
C      47.971899999999991     48.010950000000008     49.830590000000001
C      49.039900000000003     49.769850000000005     47.823689999999999
C      48.640699999999995     49.173450000000003     50.255899999999997
C      49.372399999999999     49.668250000000000     49.104450000000000
H      47.962100000000000     46.420749999999998     46.688279999999992
H      46.397500000000001     45.921949999999995     45.917279999999991
H      46.284700000000001     48.128050000000002     44.818379999999991
H      45.626199999999997     47.491649999999993     47.694952999999998
H      46.857199999999999     46.122450000000001     48.642990000000012
H      47.582099999999997     49.946250000000006     45.444179999999989
H      47.422699999999999     47.357150000000004     50.557169999999999
H      49.537599999999998     50.078050000000005     46.898479999999992
H      48.990399999999994     49.415549999999996     51.181620000000009
H      50.373800000000003     50.041550000000001     49.468969999999999
