59

C      48.502499999999991     45.801449999999996     49.269199999999984
C      49.417200000000008     45.370750000000001     48.296699999999994
C      44.424999999999997     52.144224000000008     45.716000000000001
C      49.345299999999995     47.867249999999999     43.031399999999998
C      47.520800000000008     46.898650000000004     49.023299999999999
C      44.979399999999998     51.967733700000011     44.459599999999995
C      48.273499999999999     48.702050000000000     42.900599999999997
C      49.579000000000008     46.056749999999994     47.154800000000002
C      44.870500000000007     51.109449999999995     46.633900000000004
C      49.470600000000005     47.260549999999995     44.361300000000000
C      47.134500000000003     50.686149999999998     43.625899999999994
C      47.067899999999995     48.974649999999997     47.685499999999998
C      46.072500000000005     51.019750000000002     44.470900000000000
C      47.769999999999996     47.795249999999996     47.864100000000001
C      47.763599999999997     49.551949999999991     44.045200000000001
C      48.549999999999997     47.041049999999998     46.808799999999998
C      45.838800000000006     50.355350000000001     45.880699999999997
C      48.471299999999999     47.644449999999992     45.474799999999995
C      46.812100000000001     49.420349999999999     46.336599999999997
C      47.713999999999999     48.825649999999996     45.338799999999999
C      50.265900000000002     45.540350000000004     46.063899999999997
C      50.473600000000005     46.384050000000002     44.753499999999995
C      49.089799999999997     45.344650000000001     50.574999999999996
C      49.747600000000006     44.116349999999997     50.992299999999993
C      50.503000000000000     43.638249999999999     49.884399999999992
C      50.537199999999999     44.285249999999991     48.576000000000001
C      51.625200000000007     44.272250000000000     47.557099999999998
C      51.469499999999996     44.806749999999994     46.253999999999998
C      46.534999999999997     47.707149999999999     49.748200000000004
C      45.636399999999995     48.625550000000004     50.103099999999991
C      48.488600000000005     46.240749999999991     51.608600000000003
C      47.383600000000001     46.135750000000002     52.681300000000000
C      50.063299999999998     47.241249999999994     41.890999999999998
C      47.404200000000003     45.010549999999995     53.724600000000002
C      44.359700000000004     49.116649999999993     49.361100000000000
H      43.874899999999997     53.118850000000009     45.736100000000000
H      44.866200000000006     52.665497000000002     43.735599999999998
H      48.161100000000005     49.053650000000005     41.856999999999999
H      44.762600000000006     50.924849999999992     47.576799999999999
H      47.075500000000005     51.188549999999992     42.662399999999998
H      46.642700000000005     49.872249999999994     48.410800000000002
H      51.124200000000002     46.496250000000003     43.836999999999996
H      51.196899999999999     42.881149999999991     50.426399999999994
H      52.611300000000000     43.844250000000002     47.749299999999998
H      52.306600000000003     44.642849999999996     45.588499999999996
H      49.330100000000002     46.583849999999998     52.411099999999998
H      45.519999999999996     48.806049999999999     51.269100000000002
H      48.355100000000007     47.417349999999999     51.151099999999992
H      49.279100000000000     46.778949999999995     41.188099999999999
H      51.136800000000008     47.655850000000001     41.567200000000000
H      50.768000000000001     46.330349999999996     42.152600000000000
H      46.309300000000007     44.700549999999993     53.658499999999997
H      48.006900000000002     44.170050000000003     53.369499999999995
H      44.570999999999998     49.973349999999996     48.969599999999993
H      43.388700000000000     48.844449999999995     49.900900000000000
H      43.979799999999997     48.195949999999996     48.794999999999995
H      47.727900000000005     45.445650000000001     54.811900000000001
H      49.792900000000003     43.968549999999993     52.134799999999991
O      46.867999999999995     47.101249999999993     52.907499999999992
