6

C      48.071899999999992     48.812999999999988     48.305849999999992
C      48.202300000000008     47.857600000000005     47.418250000000000
H      47.001199999999997     48.875900000000001     48.502849999999995
H      48.739100000000008     48.870800000000003     49.161149999999999
H      48.998800000000003     47.124099999999999     47.193849999999998
H      47.437200000000004     47.437899999999999     46.838850000000001
