6

C      47.636999999999993     48.525249999999993     48.155749999999991
C      48.417900000000003     47.556950000000001     47.534350000000003
H      48.053600000000003     49.431950000000001     48.478250000000003
H      46.934100000000001     48.507550000000009     49.363750000000003
H      48.152500000000003     46.568049999999999     47.873750000000001
H      49.065899999999999     47.803950000000000     46.636249999999997
