22

C      46.924299999999988     46.100249999999988     46.314999999999991
C      46.117599999999996     46.129350000000002     47.679999999999993
C      48.314099999999996     46.482550000000003     46.770099999999999
C      46.008800000000008     47.582650000000001     48.179900000000004
C      48.591700000000003     47.317450000000008     48.128399999999999
C      47.478400000000008     47.880849999999995     48.677499999999995
C      49.798100000000005     48.065649999999991     48.309600000000003
C      47.685600000000008     48.770249999999990     49.856999999999999
C      49.987700000000004     49.285150000000002     48.912099999999995
C      48.807600000000008     49.654150000000001     49.678200000000004
H      46.561700000000002     45.217649999999992     45.710899999999995
H      46.207200000000000     46.775949999999995     45.632999999999996
H      46.260099999999994     45.463250000000002     48.519599999999997
H      45.003000000000000     45.837149999999994     47.414699999999996
H      48.757599999999996     47.289949999999990     46.100999999999999
H      48.985500000000002     45.526650000000004     46.593000000000004
H      45.271699999999996     47.355649999999997     49.053899999999999
H      45.488000000000000     48.381149999999991     47.692999999999998
H      50.569599999999994     47.549950000000010     47.735599999999991
H      46.786799999999999     49.001449999999991     50.367000000000004
H      50.997000000000000     49.784250000000000     48.794299999999993
H      48.872400000000013     50.782350000000008     49.928299999999993
