23

C      46.449049999999993     46.102514999999990     47.313149999999993
C      46.620950000000008     46.685014999999993     46.036149999999999
C      49.680449999999993     49.390525000000004     47.900849999999998
C      46.970150000000004     47.157614999999993     48.244650000000000
C      48.097250000000003     46.844414999999998     45.797850000000004
C      48.461449999999999     48.998115000000006     48.552249999999994
C      50.049650000000000     48.531805000000006     46.862050000000004
C      48.071950000000001     47.824174000000014     47.939649999999993
C      48.932550000000006     47.482583000000005     46.832850000000001
C      46.131749999999997     47.936652000000009     49.133950000000006
C      46.852450000000005     48.561965000000015     50.215650000000004
C      47.841650000000001     49.927925000000002     49.661650000000002
H      45.901049999999998     45.354415000000003     47.550350000000002
H      46.026449999999997     46.355715000000004     45.123150000000003
H      50.259349999999998     50.373455000000007     47.908449999999995
H      50.954049999999995     48.815115000000006     46.159050000000001
H      45.045950000000005     47.949572000000003     49.461049999999993
H      47.095050000000001     47.950951000000003     51.043150000000004
H      46.268749999999997     48.916764999999998     51.309549999999994
H      48.437049999999999     50.352005000000005     50.433950000000003
H      47.160950000000000     50.645584999999997     49.131449999999994
H      49.719149999999999     46.584315000000004     44.850349999999999
O      48.800449999999998     46.684114999999991     44.690450000000006
