23

C      48.859650000000002     50.173899999999989     48.645854999999983
C      48.713949999999997     48.815300000000001     48.499434999999991
C      48.022949999999994     48.154299999999999     47.450625000000002
C      47.750349999999997     48.914099999999998     46.305255000000002
C      48.066749999999999     50.322399999999995     46.516804999999991
C      49.521550000000005     50.783899999999996     49.828114999999997
C      48.651949999999999     46.773400000000002     47.072834999999998
C      47.873450000000005     45.694300000000005     47.798554999999993
C      47.225849999999994     44.769799999999996     46.576504999999997
H      48.086749999999995     51.064299999999996     45.733074999999999
H      48.936250000000001     50.197200000000002     50.661815000000004
H      46.899649999999994     45.519200000000005     45.801974999999999
H      49.355049999999991     47.144300000000008     48.795315000000002
H      47.003749999999997     45.995799999999996     48.440455000000000
H      47.893050000000002     44.017400000000002     46.318524999999994
H      46.353350000000006     44.304400000000008     46.819355000000002
H      46.604550000000003     47.440100000000008     45.605544999999992
H      48.711349999999996     45.152400000000007     48.438164999999998
N      48.319149999999993     50.956800000000008     47.721744999999999
O      49.646649999999994     51.982599999999998     49.919815000000000
O      49.269449999999992     46.361799999999995     46.132094999999993
O      46.958550000000002     48.372800000000005     45.338184999999996
O      49.591349999999991     47.952999999999996     49.306114999999991
