25

C      47.403199999999984     45.453349999999993     49.865299999999991
C      47.413899999999991     46.848349999999996     49.945900000000009
C      49.674399999999999     50.925849999999997     47.545400000000001
C      47.173299999999990     51.379050000000007     46.357200000000006
C      48.758999999999993     49.743449999999996     47.697299999999998
C      47.631599999999999     49.969049999999996     46.852999999999994
C      48.629399999999997     48.579850000000008     48.543700000000001
C      46.458300000000001     49.322850000000003     47.233999999999995
C      47.526699999999998     47.627150000000000     48.713899999999995
C      46.491700000000002     47.973050000000001     47.801800000000000
H      47.655600000000000     44.983550000000008     50.816199999999995
H      46.428000000000004     44.905950000000004     49.683400000000006
H      46.638500000000001     47.137349999999998     50.540600000000012
H      48.206200000000003     47.326350000000005     50.769300000000001
H      48.660099999999993     43.856949999999998     49.112799999999993
H      50.316899999999997     50.881150000000005     48.593400000000003
H      50.210699999999996     50.628850000000000     46.619699999999995
H      49.108100000000000     51.916550000000001     47.585200000000000
H      47.267499999999991     52.143050000000002     47.203500000000005
H      46.072200000000002     51.587550000000007     46.017300000000006
H      49.550999999999995     48.755150000000000     49.196600000000004
H      45.683100000000003     49.793650000000000     46.755499999999998
H      45.705899999999993     47.190049999999999     47.774900000000002
H      47.554399999999994     51.405850000000001     45.183800000000005
O      48.068300000000001     44.563649999999996     48.971199999999996
