6

C      47.360499999999995     48.213600000000000     48.023799999999994
C      48.531199999999998     47.785000000000004     48.052499999999995
H      46.527100000000004     47.797599999999996     47.465599999999995
H      47.045199999999994     48.860199999999999     48.799199999999999
H      48.727699999999999     47.139800000000001     47.200800000000001
H      49.472899999999996     47.729700000000001     48.637100000000004
