8

C      48.640734999999985     47.976500000000001     47.404449999999990
C      47.350079999999991     47.906200000000005     48.416849999999997
H      48.126597999999994     48.378100000000011     46.454949999999997
H      46.518480000000011     46.895800000000001     48.264550000000000
H      49.015389999999989     49.104199999999999     47.489450000000005
H      49.481519999999989     47.142400000000002     47.546149999999997
H      46.892279999999992     48.904699999999998     48.410750000000007
H      47.778680000000001     47.863900000000008     49.545050000000003
