22

C      46.106784999999988     49.684714999999997     49.567699999999995
C      45.975564999999996     48.211514999999991     46.796599999999998
C      47.194375000000001     48.352215000000001     47.718599999999995
C      47.058324999999996     49.297614999999993     48.855100000000007
C      48.460234999999997     47.747315000000000     47.487200000000001
C      49.367074999999993     48.616214999999997     48.440100000000001
C      48.668455000000002     46.692014999999998     46.620599999999996
C      50.137245000000000     46.203315000000003     46.593500000000006
C      48.441904999999998     49.752015000000000     49.016500000000008
H      50.814365000000002     46.701714999999993     47.362800000000007
H      50.352925000000006     49.114014999999995     48.151100000000000
H      45.489694999999998     50.572014999999993     49.214299999999994
H      46.010404999999999     48.843914999999996     50.346599999999995
H      45.185634999999998     47.920014999999992     47.472200000000001
H      45.891475000000000     47.472115000000002     45.803700000000006
H      47.567045000000000     46.140914999999993     46.288100000000000
H      49.993434999999998     47.941814999999991     49.059600000000003
H      50.108004999999999     45.127685000000000     46.973900000000000
H      50.643335000000000     46.395214999999993     45.653400000000005
H      45.841004999999996     49.278115000000000     46.173500000000004
H      48.584494999999997     50.872315000000000     48.926699999999997
H      48.822854999999997     49.913714999999996     50.143699999999995
