22

C      50.481949999999998     46.215649999999997     47.090599999999995
C      45.587550000000000     49.067150000000005     46.517300000000006
C      49.566849999999995     47.290350000000011     46.446700000000007
C      46.826150000000005     49.158650000000002     46.269900000000007
C      48.898850000000003     48.365550000000006     47.439999999999998
C      47.725850000000001     48.962450000000011     47.543599999999998
C      49.583450000000006     48.647350000000003     48.680700000000002
C      47.435750000000006     49.844749999999998     48.695800000000006
C      49.749050000000004     49.811650000000007     49.474100000000007
C      48.437649999999998     50.430749999999996     49.591000000000008
H      49.965250000000005     47.712949999999999     45.483800000000002
H      50.188349999999993     45.121050000000004     46.928500000000000
H      51.183249999999994     46.728850000000001     47.906900000000007
H      45.536449999999995     48.708250000000000     47.560299999999998
H      51.162150000000004     45.962450000000004     46.317099999999996
H      48.740749999999998     46.877150000000007     45.835499999999996
H      44.816750000000006     49.116350000000004     45.697600000000008
H      47.187350000000002     49.630450000000003     45.387900000000002
H      50.502950000000006     48.152149999999999     48.910399999999996
H      46.511450000000004     50.503949999999996     48.851399999999998
H      50.693050000000007     50.029850000000003     50.045900000000003
H      48.106950000000005     50.878949999999996     50.612099999999998
