13

C      49.003049999999988     48.703099999999985     47.946749999999994
C      47.700949999999999     48.420599999999993     48.221249999999998
C      49.269550000000002     48.398600000000002     46.521649999999994
C      46.926849999999995     48.881000000000000     49.503249999999994
C      48.283849999999994     47.378299999999996     46.253649999999993
C      47.247750000000003     47.625000000000000     47.230750000000000
H      45.850450000000002     49.311499999999995     49.564149999999998
H      49.628449999999994     49.383799999999994     48.591649999999987
H      47.402250000000002     49.742300000000000     49.806849999999997
H      50.149549999999998     48.582899999999995     45.787549999999996
H      47.132649999999991     48.157700000000006     50.346649999999997
H      48.554749999999991     46.257700000000000     45.653350000000003
H      46.342649999999999     47.236999999999995     47.205149999999989
