6

C      47.655899999999988     47.723449999999985     47.751749999999994
C      48.382500000000007     48.231449999999995     48.814949999999996
H      47.901100000000014     46.653949999999995     47.667749999999998
H      46.770799999999994     48.117350000000002     47.084249999999997
H      48.638200000000012     49.346050000000005     48.712450000000004
H      49.229200000000006     47.563149999999993     48.915750000000003
