18

C      48.037649999999992     48.594649999999994     45.769189999999995
C      46.913650000000004     46.366450000000000     47.196890000000010
C      47.990650000000002     48.552450000000000     47.276790000000005
C      47.033649999999994     47.728850000000001     47.938090000000003
C      48.829750000000004     49.462350000000001     47.957190000000011
C      46.873149999999995     47.739750000000001     49.376190000000008
C      48.708449999999999     49.567750000000004     49.373990000000006
C      47.736850000000004     48.739249999999998     49.898290000000003
H      46.480649999999997     45.647149999999996     47.962390000000013
H      49.048149999999993     48.375250000000001     45.481790000000004
H      47.643349999999998     49.162750000000003     44.885310000000004
H      47.695350000000005     47.766449999999999     45.464050000000000
H      47.911749999999998     45.937449999999998     46.751190000000008
H      46.413950000000000     46.788849999999996     46.397490000000005
H      49.666550000000001     50.057850000000002     47.375190000000003
H      46.333449999999999     47.089350000000003     50.029089999999997
H      49.097549999999998     50.352850000000004     49.876390000000001
H      47.471649999999997     48.796650000000000     51.114689999999996
