22

C      46.721449999999990     46.747749999999996     49.528549999999996
C      47.722250000000003     47.730649999999997     50.201349999999998
C      46.726350000000011     46.424750000000003     47.868450000000003
C      47.758049999999997     49.106250000000003     49.334049999999998
C      47.686250000000001     47.403850000000006     47.208850000000005
C      47.788950000000000     48.680549999999997     47.874250000000004
C      48.360150000000004     47.137149999999991     45.950049999999997
C      48.409850000000006     49.639650000000003     46.962949999999999
C      49.526749999999993     47.889749999999992     45.589550000000003
C      49.248050000000006     49.311650000000000     45.867249999999999
H      45.988450000000000     46.665149999999997     50.302349999999997
H      46.971650000000011     45.778750000000002     49.798150000000000
H      48.697550000000007     47.211249999999993     50.537650000000006
H      47.075350000000000     48.027349999999998     51.042949999999998
H      47.279650000000004     45.412750000000003     47.720849999999999
H      45.678749999999994     46.420550000000006     47.548549999999999
H      46.720550000000003     49.282749999999993     49.502450000000003
H      48.595550000000003     49.778149999999997     49.729550000000003
H      47.962149999999994     46.506150000000005     45.210349999999998
H      48.226550000000003     50.587249999999997     47.614449999999998
H      50.321250000000006     47.647549999999995     44.957050000000002
H      49.498950000000008     50.101049999999987     45.196449999999999
