5

C      48.331049999999991     48.217049999999993     47.945449999999994
H      48.526649999999997     48.819749999999999     47.149349999999998
H      48.814050000000002     48.076949999999997     48.850650000000002
H      48.004849999999998     47.180250000000001     47.547750000000008
H      47.185949999999998     48.702150000000003     48.113550000000004
