20

C      50.071924999999993     48.721134999999997     47.722149999999992
C      48.922325000000001     47.782935000000002     46.360050000000001
C      46.107824999999998     47.105965000000005     45.967950000000002
C      48.111024999999998     47.066295000000004     47.346249999999998
C      46.647925000000001     47.147465000000004     47.079549999999998
C      48.768225000000001     47.014155000000002     48.621549999999999
C      45.754084999999996     47.138305000000003     48.164549999999998
C      47.897824999999997     46.844145000000005     49.729250000000008
C      46.536225000000002     47.238325000000003     49.384450000000001
H      49.437125000000002     49.130235000000006     48.636650000000003
H      51.225924999999997     48.154035000000007     47.893349999999998
H      50.350325000000005     49.737134999999995     47.767550000000000
H      49.408225000000002     47.136495000000004     45.563749999999999
H      48.389924999999998     48.606935000000007     45.596649999999997
H      46.100524999999998     48.220835000000008     45.286050000000003
H      46.163525000000000     46.262865000000005     45.431449999999998
H      49.868225000000002     46.832395000000005     48.748949999999994
H      44.774075000000003     47.316465000000008     48.179450000000003
H      48.288625000000003     46.863185000000001     50.713949999999997
H      45.841025000000002     47.711535000000005     50.117950000000000
