54

C      47.086049999999993     46.530299999999997     49.294749999999993
C      48.207050000000010     45.714299999999994     48.766949999999994
C      48.125550000000004     50.016300000000001     45.963750000000005
C      49.196050000000000     49.326800000000006     45.206949999999992
C      47.025149999999996     47.801999999999992     48.914349999999999
C      49.119349999999997     46.408900000000003     47.824950000000001
C      47.467050000000000     49.488399999999999     47.176349999999999
C      49.348250000000007     47.960899999999995     45.763750000000002
C      47.602950000000007     48.149899999999988     47.599750000000000
C      48.864850000000004     47.560900000000004     47.130250000000004
C      46.433450000000008     46.195999999999998     50.523349999999994
C      47.015650000000008     44.957300000000004     51.279349999999994
C      47.861450000000005     44.158599999999993     50.600250000000003
C      48.249549999999999     44.398899999999998     49.117249999999999
C      47.650550000000010     51.237200000000001     45.271550000000005
C      48.698250000000002     51.729900000000001     44.378450000000001
C      49.682050000000004     50.989199999999997     43.685050000000004
C      49.773449999999997     49.640599999999992     43.961150000000004
C      45.538150000000002     47.043999999999997     51.090449999999990
C      45.401849999999996     46.774799999999999     52.586449999999985
C      45.926749999999998     45.650899999999993     52.986549999999994
C      46.713650000000001     44.660200000000003     52.726749999999996
C      44.758049999999997     48.101399999999998     50.426749999999998
C      45.779250000000005     48.532499999999999     49.414549999999991
C      45.470250000000007     49.741199999999992     48.774550000000005
C      46.131650000000008     50.082899999999995     47.572350000000000
C      46.263850000000005     51.587800000000001     45.439949999999996
C      45.865049999999997     51.136799999999994     46.668549999999996
C      50.280450000000002     45.760499999999993     47.441149999999993
C      51.093950000000007     46.434200000000004     46.444450000000003
C      48.996750000000006     43.151799999999994     48.767650000000003
C      48.788849999999996     53.082499999999996     43.700749999999999
C      50.584350000000001     47.419399999999996     45.651749999999993
C      48.764650000000003     43.420000000000002     51.592449999999985
C      49.495050000000006     43.132000000000005     47.481849999999994
H      50.230850000000004     51.455100000000002     42.810649999999995
H      50.278550000000010     48.843699999999998     43.126750000000001
H      44.564250000000001     47.430999999999997     52.693149999999989
H      46.729150000000004     43.652400000000000     53.189350000000005
H      43.810450000000003     48.463099999999997     50.575349999999986
H      44.227450000000005     49.734999999999999     49.169349999999994
H      45.559250000000006     52.313900000000004     44.915750000000003
H      44.838850000000008     51.346599999999995     47.038950000000000
H      50.705550000000002     44.840999999999994     47.689049999999995
H      52.189549999999997     46.070800000000006     46.251249999999999
H      49.176249999999996     42.646299999999997     49.721649999999997
H      49.575249999999997     53.851200000000006     43.992149999999995
H      51.523150000000001     47.659599999999998     44.953749999999999
H      49.989249999999998     43.664699999999996     51.351950000000002
H      48.643050000000002     42.318699999999993     51.567949999999996
H      49.918450000000007     42.148799999999994     47.137550000000005
H      49.114450000000005     43.575999999999993     46.526650000000004
H      48.958550000000002     43.943699999999993     52.576949999999997
O      47.725049999999996     53.604199999999992     43.495949999999993
