18

C      47.736149999999995     50.389349999999993     47.108849999999990
C      49.771350000000005     48.741250000000001     48.527149999999999
C      47.404649999999997     48.951549999999997     47.439249999999994
C      48.491250000000001     48.053049999999999     47.889650000000010
C      46.202849999999998     48.254449999999999     47.109549999999999
C      48.296550000000003     46.706150000000001     48.017550000000000
C      46.054850000000002     46.850049999999996     47.090150000000001
C      47.103149999999999     45.964449999999999     47.643549999999998
H      46.896850000000001     51.097450000000002     46.844450000000002
H      49.584949999999999     49.047849999999997     49.690649999999998
H      48.133850000000002     50.669750000000001     48.352550000000001
H      48.648350000000001     50.340849999999996     46.522849999999998
H      50.229049999999994     49.444150000000000     47.837949999999999
H      50.591850000000001     48.047049999999999     48.569749999999999
H      45.560549999999999     48.834249999999997     46.659750000000003
H      49.291149999999995     45.977849999999997     48.304650000000002
H      45.408149999999999     46.328850000000003     46.309350000000002
H      47.230150000000002     44.902549999999998     47.505049999999997
