6

C      47.732774999999990     48.570699999999995     48.272754999999997
C      48.785115000000005     47.886200000000002     47.695554999999999
H      46.497415000000004     48.367600000000003     47.658254999999997
H      47.620194999999995     48.758399999999995     49.279955000000001
H      48.949204999999992     48.068899999999999     46.720044999999999
H      49.502584999999996     47.241600000000005     48.318755000000010
