6

C      47.999849999999995     47.831899999999990     48.663404999999997
C      47.862549999999999     47.920700000000004     47.279935000000002
H      47.281750000000002     48.177000000000000     49.215245000000003
H      48.904049999999998     47.438099999999999     49.252845000000001
H      47.095950000000002     48.561900000000001     46.870595000000002
H      48.706150000000008     47.588199999999993     46.747154999999999
