5

C      48.016300000000001     47.831699999999991     47.923099999999991
H      47.687000000000005     48.722600000000000     48.539800000000000
H      48.516700000000007     47.790500000000002     49.086500000000001
H      48.777200000000001     47.800699999999999     46.913499999999999
H      47.222799999999999     47.277400000000000     47.776899999999998
