6

C      47.871544999999998     47.268495000000001     47.912449999999986
C      48.260384999999999     48.503405000000001     48.045149999999992
H      46.802165000000002     46.968135000000004     47.608049999999992
H      48.684534999999997     46.593275000000006     48.464150000000004
H      49.197834999999998     48.773655000000005     48.588149999999999
H      47.746035000000006     49.406724999999994     47.411850000000001
