21

C      46.665749999999996     49.136849999999995     45.938199999999995
C      47.667050000000003     46.983350000000002     45.437500000000000
C      47.158349999999999     48.115250000000003     46.308300000000003
C      49.901049999999998     48.383049999999997     47.185800000000000
C      47.310150000000007     47.954849999999993     47.825700000000012
C      48.731949999999998     47.957650000000001     48.048400000000001
C      46.299950000000003     47.138049999999993     48.507800000000003
C      49.022250000000000     47.889650000000003     49.468500000000006
C      46.888350000000003     46.884249999999994     49.749600000000015
C      47.974050000000005     47.661649999999995     50.291800000000009
H      49.377650000000003     49.096249999999998     46.308500000000009
H      47.350549999999998     47.040549999999996     44.521699999999996
H      46.240450000000003     50.062049999999999     45.371600000000001
H      48.844149999999999     47.017650000000003     45.454000000000008
H      47.373649999999998     45.937950000000001     45.705100000000002
H      50.684049999999999     48.887649999999994     47.922800000000009
H      50.499050000000011     47.575549999999993     46.701700000000002
H      45.315950000000001     46.885750000000002     48.183000000000007
H      50.006050000000002     47.769850000000005     49.625000000000014
H      45.954350000000005     46.638949999999994     50.230900000000005
H      48.324950000000001     47.504649999999998     51.478300000000004
