6

C      48.468499999999992     48.204349999999984     48.638694999999984
C      47.579299999999996     47.707449999999994     47.642273000000003
H      48.739399999999996     47.552549999999997     49.372405000000001
H      49.450700000000005     48.797049999999999     48.360129000000001
H      47.726300000000002     47.723249999999993     46.627594999999999
H      46.549299999999995     47.202950000000001     48.137012999999996
