16

C      48.172349999999994     46.401249999999990     46.700949999999992
C      46.183650000000000     47.977549999999994     46.989350000000002
C      48.564549999999997     47.225349999999999     47.540450000000007
C      47.396349999999998     48.145349999999986     47.731949999999998
C      49.787950000000002     47.839250000000000     47.761650000000003
C      47.534149999999997     49.233950000000000     48.710450000000009
C      49.900950000000002     48.976449999999993     48.586750000000009
C      48.767749999999999     49.562750000000001     49.207350000000005
H      47.067949999999996     46.176549999999999     46.527249999999995
H      49.097050000000003     45.864449999999998     46.389350000000007
H      46.103650000000002     47.661149999999999     45.829449999999994
H      45.178350000000002     48.195749999999997     47.341750000000005
H      50.717149999999997     47.459749999999993     47.062250000000006
H      46.563749999999999     49.824349999999995     48.914749999999998
H      50.821649999999998     49.676749999999998     48.586550000000003
H      48.790549999999996     50.135550000000002     50.170550000000006
