20

C      46.362899999999989     45.347549999999991     46.292499999999997
C      46.696500000000000     46.339649999999999     47.009900000000002
C      47.593899999999991     49.887950000000004     46.497799999999998
C      46.982999999999990     47.377949999999998     47.988299999999995
C      48.510099999999994     49.402349999999998     47.677499999999995
C      48.051800000000000     48.278250000000000     48.433999999999997
C      49.432599999999994     50.388350000000003     48.176199999999994
C      48.868499999999997     47.783749999999998     49.500399999999999
C      49.947199999999995     50.051649999999995     49.491299999999995
C      49.722099999999998     48.775850000000005     49.965299999999999
H      46.295000000000002     45.469949999999997     45.252099999999999
H      45.286400000000000     44.917850000000001     46.061399999999992
H      46.670800000000000     49.301050000000004     46.557500000000005
H      47.948699999999988     49.853149999999999     45.400299999999994
H      47.003999999999991     50.799250000000001     46.830500000000001
H      46.152499999999989     47.576149999999998     48.783500000000004
H      50.071299999999994     51.082149999999999     47.601299999999995
H      48.987699999999990     46.711449999999999     49.868700000000004
H      50.713600000000000     50.801349999999999     49.879499999999993
H      50.368099999999998     48.456050000000005     50.747900000000001
