41

C      47.843849999999989     48.829599999999999     46.367949999999993
C      47.970149999999997     47.496899999999997     46.775150000000011
C      48.373150000000003     48.851299999999995     51.597949999999997
C      47.832349999999998     49.725499999999997     50.574750000000009
C      47.172750000000001     49.879400000000004     47.125050000000002
C      47.253049999999995     46.768699999999995     47.828950000000006
C      48.695749999999997     47.580900000000000     51.179650000000009
C      47.365949999999998     48.791700000000006     49.472149999999999
C      47.977250000000005     47.468400000000003     49.861550000000008
C      46.584350000000001     49.528899999999993     48.417850000000001
C      48.605849999999997     49.471099999999993     45.320750000000004
C      49.449549999999995     48.628000000000000     44.454549999999998
C      49.330549999999995     47.255799999999994     44.744250000000008
C      48.627749999999999     46.561400000000006     45.755949999999999
C      47.665149999999997     51.804900000000004     45.712249999999997
C      48.480950000000000     50.859799999999993     45.064350000000005
C      47.755649999999996     46.296599999999998     49.089350000000010
C      49.489950000000000     44.599900000000005     46.203450000000004
C      48.327850000000005     45.118200000000002     45.899250000000009
C      46.872349999999997     52.043599999999998     49.589950000000002
C      47.879150000000003     51.171800000000005     50.398850000000010
C      47.232450000000000     43.911100000000005     46.251750000000001
C      46.889049999999997     51.186899999999994     46.703950000000006
H      45.779350000000001     51.433599999999998     49.639049999999997
H      48.817549999999990     46.829700000000003     52.109250000000003
H      49.957450000000001     48.975200000000001     43.604349999999997
H      49.822350000000000     46.529399999999995     44.157350000000008
H      47.701650000000001     52.937200000000004     45.606949999999998
H      49.324450000000006     51.343599999999995     44.568350000000009
H      46.447449999999996     46.262600000000006     47.445549999999997
H      48.435249999999996     45.413200000000003     48.914749999999998
H      49.443249999999999     43.469800000000006     46.351950000000002
H      48.883950000000006     49.145099999999999     52.395650000000003
H      47.287649999999999     52.699600000000004     48.731950000000012
H      46.861950000000000     52.790199999999999     50.374550000000013
H      48.642949999999992     51.689699999999988     50.770250000000004
H      47.249850000000002     43.062799999999996     46.961950000000002
H      46.375349999999997     51.827199999999991     47.504950000000008
H      45.517249999999997     49.845499999999987     48.725250000000003
H      50.482750000000003     45.200800000000001     46.257249999999999
O      46.214149999999997     44.382599999999996     46.361050000000006
