21

C      47.622449999999994     49.022299999999994     46.693149999999989
C      48.425950000000000     50.104799999999997     47.771850000000015
C      47.984250000000003     50.021299999999997     49.124750000000006
C      48.783649999999994     48.574599999999990     45.827250000000006
C      47.656149999999997     48.594299999999990     49.184750000000008
C      47.349550000000001     48.058599999999998     47.813150000000007
C      47.902349999999998     47.761699999999990     50.266850000000005
C      46.697650000000003     46.898899999999998     48.036850000000001
C      47.589750000000002     46.363099999999989     50.277950000000004
C      46.791350000000001     45.936399999999992     49.215550000000007
H      48.755449999999996     48.819699999999997     44.757350000000002
H      46.808149999999998     49.494699999999995     46.278649999999999
H      49.777850000000001     48.608499999999992     46.324550000000002
H      48.946649999999991     51.095500000000001     47.516450000000006
H      49.247950000000003     49.241000000000000     47.931150000000002
H      48.291449999999998     50.584699999999998     49.952250000000006
H      48.706150000000008     47.406799999999990     45.879950000000008
H      48.185850000000002     48.036000000000001     51.242649999999998
H      46.222149999999999     46.188299999999998     47.337550000000007
H      47.951349999999991     45.702500000000001     51.225250000000003
H      46.755850000000002     44.904499999999999     49.141850000000005
