5

C      47.776099999999985     48.018449999999994     47.847749999999991
H      47.262300000000003     47.056950000000001     47.602749999999993
H      48.788199999999996     47.720050000000001     48.184749999999994
H      47.662799999999997     48.943049999999999     47.383149999999993
H      47.211800000000004     48.544050000000013     48.616850000000007
