19

C      48.413849999999996     45.690899999999999     46.845499999999987
C      47.607250000000001     47.111499999999992     49.459699999999998
C      47.605350000000001     46.962299999999999     47.124799999999993
C      47.451950000000004     47.866900000000001     48.194900000000004
C      46.810450000000003     47.467700000000008     46.075299999999999
C      47.154049999999998     49.229500000000002     47.898600000000002
C      46.896650000000001     48.858500000000006     45.668399999999991
C      47.283850000000001     49.813100000000006     46.555199999999999
C      48.046450000000000     47.924199999999999     50.367300000000000
H      48.514749999999999     45.245000000000005     47.810699999999997
H      49.375250000000001     46.199300000000008     46.715499999999992
H      47.890850000000000     45.263900000000007     45.835200000000000
H      47.428750000000001     46.065500000000000     49.676800000000000
H      46.624749999999999     46.985399999999998     45.187899999999999
H      47.549150000000004     50.258099999999999     48.374800000000008
H      46.659450000000000     49.489799999999988     44.765199999999993
H      47.795150000000000     50.754999999999995     46.311199999999999
H      48.261749999999999     49.054900000000004     50.125100000000003
H      48.268349999999998     47.367500000000007     51.234800000000007
