31

C      49.210149999999992     45.042599999999979     48.856049999999996
C      49.785650000000004     46.381900000000002     48.483249999999998
C      48.856949999999998     47.316299999999998     48.011449999999996
C      47.469050000000003     47.101799999999997     47.979150000000004
C      47.059650000000005     45.848399999999998     48.389849999999996
C      47.908450000000002     44.809899999999999     48.937349999999995
C      47.045650000000002     43.517300000000006     48.739550000000008
C      45.694749999999999     52.097830000000002     49.241950000000003
C      47.317250000000001     49.088476999999997     49.882649999999998
C      45.890350000000005     50.752150000000000     48.544550000000001
C      46.652950000000004     49.496452000000005     48.744950000000003
C      45.536050000000003     50.812020000000004     47.157849999999996
C      46.394950000000001     48.308300000000003     47.746650000000002
C      46.104050000000001     49.949546000000012     46.133849999999995
C      46.571449999999999     48.753799999999998     46.315750000000008
H      45.960550000000005     45.676400000000001     48.361050000000006
H      46.610350000000004     42.978700000000003     49.586449999999999
H      50.795349999999999     46.624899999999997     48.608450000000005
H      49.655249999999995     43.323599999999999     49.125250000000008
H      49.187449999999998     48.459699999999998     47.799949999999995
H      45.204650000000001     52.094770000000011     50.133949999999999
H      46.756750000000004     52.219960000000015     49.766849999999991
H      47.534849999999999     48.003299999999996     49.694450000000003
H      46.946550000000002     49.211151000000001     50.923949999999991
H      45.337050000000005     51.843710000000016     46.936850000000007
H      45.352850000000004     47.863100000000003     47.816050000000004
H      45.867850000000004     50.113980000000012     45.076050000000009
H      46.998249999999999     48.105400000000003     45.538849999999996
H      45.449850000000005     53.021299999999997     48.649550000000005
O      46.758850000000002     43.244900000000001     47.663750000000007
O      50.081150000000008     44.075000000000003     49.547249999999991
