6

C      48.080949999999987     47.805099999999989     47.510249999999992
C      48.076950000000004     48.342100000000002     48.801850000000002
H      48.625650000000000     48.082700000000003     46.769250000000000
H      47.200449999999996     47.155500000000004     47.051649999999995
H      48.924550000000004     48.844499999999996     49.230750000000000
H      47.075449999999996     48.631399999999999     48.764650000000003
