6

C      47.743350000000000     47.613339999999994     47.507400000000004
C      48.211750000000009     48.467730000000003     48.302100000000003
H      47.959650000000011     46.412210000000002     47.544800000000002
H      47.711050000000000     49.587789999999998     48.442300000000010
H      46.994050000000001     48.062179999999998     46.829400000000000
H      49.005949999999999     48.333900000000000     49.170600000000000
