22

C      47.461149999999989     47.236399999999989     50.181949999999993
C      48.787950000000009     46.728800000000000     49.818449999999999
C      46.389849999999996     47.698299999999996     49.321950000000001
C      49.559049999999999     47.993500000000004     49.217050000000000
C      47.234250000000003     48.309199999999997     48.076850000000000
C      48.594149999999999     48.598300000000002     48.162950000000002
C      46.705349999999996     47.981600000000007     46.712250000000004
C      49.191249999999997     49.468499999999999     47.137349999999998
C      47.712249999999997     48.229400000000005     45.775250000000000
C      48.866849999999999     49.093499999999999     45.853450000000002
H      47.597650000000002     47.754700000000007     51.165649999999999
H      46.962450000000004     46.428699999999999     50.768650000000008
H      48.956950000000006     45.741099999999996     49.131550000000004
H      49.520250000000004     46.742799999999995     50.682350000000000
H      45.988450000000000     48.573000000000000     49.710549999999998
H      45.755049999999997     46.886900000000004     48.821449999999999
H      49.302650000000000     48.771400000000007     50.153150000000004
H      50.244950000000003     47.734000000000002     48.614550000000001
H      46.027250000000009     47.168600000000005     46.330249999999999
H      49.859950000000012     50.258900000000004     47.533250000000002
H      47.678750000000008     47.539899999999996     44.834350000000001
H      49.287250000000000     49.773299999999999     45.133450000000003
