19

C      49.936149999999998     48.781499999999994     46.062849999999990
C      50.715849999999989     47.902400000000000     46.877749999999999
C      48.581040000000002     49.088799999999999     46.492449999999998
C      50.062849999999997     47.101900000000001     48.086149999999996
C      47.885559999999998     48.595999999999997     47.558750000000003
C      48.594970000000004     47.574700000000000     48.265450000000001
C      46.542220000000000     49.149800000000006     47.593849999999989
C      47.624300000000005     47.187399999999997     49.381949999999996
C      45.831350000000000     48.590800000000002     48.637949999999989
C      46.316929999999999     47.688600000000001     49.734549999999999
H      50.414850000000001     49.402800000000006     45.261749999999999
H      51.265749999999997     47.491799999999998     46.177149999999997
H      47.996930000000006     49.961300000000001     45.866950000000003
H      50.412250000000000     47.204599999999999     49.087849999999996
H      50.031549999999996     46.038699999999999     47.823849999999993
H      46.294489999999996     49.747900000000001     46.704450000000001
H      48.062020000000004     46.244000000000000     49.712949999999992
H      44.734250000000003     48.741500000000002     48.816249999999997
H      45.866339999999994     47.372500000000002     50.738250000000001
