72

C      45.710099999999997     48.015049999999988     44.697749999999992
C      44.396299999999997     47.416050000000006     44.832849999999993
C      46.863299999999995     44.635050000000000     47.366849999999999
C      46.979600000000005     47.241450000000007     45.030150000000006
C      44.394800000000004     46.056850000000004     45.054550000000006
C      47.864099999999993     45.346550000000001     46.700350000000000
C      45.498300000000000     44.748550000000002     46.861350000000002
C      47.032399999999996     45.987550000000006     45.587450000000004
C      45.698700000000002     45.555050000000001     45.605450000000005
C      45.792399999999986     49.189950000000003     43.926850000000002
C      44.635000000000005     49.394849999999998     42.996749999999999
C      43.424700000000001     48.764850000000003     43.062150000000003
C      43.305800000000005     47.667250000000003     43.769750000000002
C      47.022899999999993     49.977449999999997     43.941949999999999
C      46.949799999999996     50.857650000000000     42.866349999999997
C      45.663600000000002     51.324149999999996     42.365049999999997
C      48.220799999999997     49.287050000000001     44.590150000000001
C      48.302599999999998     47.868150000000007     44.755749999999992
C      49.280599999999993     45.663649999999997     46.786549999999998
C      50.259500000000003     45.299950000000003     46.092250000000007
C      49.658299999999997     46.288750000000000     48.041150000000002
C      47.409800000000004     49.631850000000007     52.029449999999997
C      48.316999999999993     49.595649999999999     53.430750000000003
C      48.238100000000003     48.712049999999998     51.056849999999997
C      49.693799999999996     49.223649999999999     53.117850000000004
C      49.689800000000005     48.973750000000003     50.842349999999996
C      50.512900000000002     49.570050000000002     52.007350000000002
C      50.445099999999996     48.882449999999999     49.572550000000007
C      51.928399999999996     49.112850000000002     51.931249999999999
C      51.518799999999999     47.999450000000003     49.713549999999998
C      52.258099999999999     48.395750000000000     50.898349999999994
C      48.857999999999990     45.368150000000007     49.454149999999998
C      48.012600000000006     47.266050000000000     51.796250000000001
C      49.741900000000001     45.631650000000000     50.646950000000004
C      49.215999999999994     46.645350000000001     51.629350000000002
C      50.856399999999994     44.797450000000005     50.883750000000006
C      50.121899999999997     46.877050000000004     52.425750000000001
C      51.839799999999997     45.433150000000005     51.691450000000003
C      51.443799999999996     46.384049999999995     52.509550000000004
H      47.372500000000002     44.047850000000004     48.296549999999996
H      43.504400000000004     45.305650000000007     45.171849999999992
H      44.497699999999995     44.269750000000009     47.257950000000001
H      42.672200000000004     48.694049999999997     42.230750000000000
H      42.754599999999996     46.851949999999995     43.630449999999996
H      45.621499999999997     52.365649999999995     41.894549999999995
H      49.298900000000003     49.657850000000003     44.871549999999999
H      48.887599999999992     51.301750000000006     42.110849999999999
H      51.229999999999990     46.027350000000006     46.131349999999998
H      50.774299999999997     44.432949999999998     46.278649999999999
H      49.221199999999996     47.344050000000003     45.076149999999998
H      49.058299999999988     47.176750000000006     47.992850000000004
H      50.596000000000004     46.073250000000009     48.223849999999999
H      46.531499999999994     49.118950000000005     52.241050000000001
H      47.282899999999998     50.541050000000006     51.453149999999994
H      48.357600000000005     50.630550000000007     54.025350000000003
H      47.757599999999996     49.019150000000003     54.105450000000005
H      47.536900000000003     48.559450000000005     50.250450000000001
H      50.353099999999998     48.795449999999995     53.857050000000001
H      50.402699999999996     49.596449999999997     48.725149999999999
H      52.664100000000005     49.155650000000001     52.680250000000001
H      52.353200000000001     47.547149999999995     48.945450000000001
H      53.327799999999996     48.370849999999997     50.878650000000007
H      48.916100000000000     44.326650000000008     49.126249999999999
H      47.712800000000001     45.461350000000003     49.557350000000000
H      46.777399999999986     47.232650000000000     51.282849999999996
H      47.973099999999988     47.383649999999996     52.840950000000007
H      50.863699999999994     43.634350000000005     50.734750000000005
H      50.081099999999992     47.535249999999998     53.190849999999998
H      52.899900000000002     44.621749999999999     51.757549999999995
H      52.122900000000001     46.726350000000004     53.238349999999997
N      44.601299999999995     50.526150000000008     42.326750000000004
O      48.096499999999992     51.719450000000002     42.538249999999998
