20

C      49.667799999999993     48.874649999999995     49.608450000000005
C      48.861300000000000     47.655250000000002     49.944450000000010
C      46.059300000000000     47.544350000000001     48.480950000000000
C      48.569500000000005     47.134149999999998     48.532450000000004
C      47.383400000000002     47.557350000000000     47.871450000000003
C      49.625300000000003     46.963250000000002     47.637650000000001
C      47.195300000000003     47.923349999999999     46.522950000000002
C      49.595600000000005     47.054049999999997     46.255050000000004
C      48.493400000000001     47.783250000000002     45.854649999999999
H      49.784999999999997     49.449350000000003     50.634750000000004
H      49.123300000000000     49.407350000000008     48.756350000000005
H      49.277300000000004     47.438949999999998     50.940249999999999
H      48.061500000000002     48.130949999999999     50.565050000000006
H      45.893400000000000     47.763249999999999     49.507950000000001
H      45.266300000000001     47.624049999999997     47.918950000000002
H      50.733699999999999     46.550649999999997     48.033050000000010
H      46.300899999999999     48.665450000000000     46.331550000000000
H      50.367899999999992     46.845250000000000     45.611250000000005
H      48.397100000000002     48.450049999999997     45.059750000000001
H      50.659499999999994     48.494050000000001     49.157550000000008
