6

C      48.375649999999986     47.886099999999992     48.467425699999993
C      47.411949999999990     47.670100000000005     47.717016700000002
H      48.698049999999995     49.090800000000002     48.639235700000000
H      49.211050000000000     47.139700000000005     48.825935700000002
H      46.876350000000002     48.550100000000000     47.174064299999998
H      46.788950000000000     46.909199999999998     47.848039700000001
