17

C      49.559004999999999     48.419649999999990     46.787449999999993
C      49.453694999999996     48.526649999999997     48.258950000000006
C      48.314857000000003     48.942950000000003     48.829850000000000
C      47.126914999999997     49.049950000000003     48.006750000000004
C      47.293314999999993     49.213050000000003     46.629049999999999
C      50.240355000000008     47.451950000000004     49.001749999999994
C      45.787615000000017     49.063949999999998     48.801750000000006
H      48.014385000000004     48.967149999999997     49.914549999999998
H      46.388215000000002     49.512949999999996     45.942749999999997
H      49.978755000000007     46.396650000000001     48.494250000000001
H      51.145984999999996     48.054449999999996     49.509850000000007
H      44.854015000000004     49.408650000000002     48.254150000000003
H      46.127015000000029     49.603349999999999     49.695550000000004
H      45.587914999999995     48.008150000000008     48.939550000000004
H      49.853304999999992     47.300350000000002     50.057250000000003
N      48.438737000000003     48.893450000000009     46.041050000000006
O      50.320584999999994     47.760250000000006     46.139350000000000
