21

C      48.734099999999998     47.697099999999992     50.816849999999988
C      48.615200000000002     48.972099999999998     50.396750000000004
C      49.722600000000000     46.521400000000000     48.084250000000004
C      48.376700000000000     49.496599999999987     49.001749999999994
C      49.012000000000000     47.631399999999999     47.212650000000004
C      48.060800000000000     48.557400000000001     47.853149999999992
C      48.924099999999996     47.168999999999997     45.780049999999996
C      46.740399999999994     48.403999999999996     47.238650000000000
C      47.661999999999992     47.282299999999992     45.143149999999999
C      46.676599999999993     48.047799999999995     45.914949999999997
H      48.971599999999995     45.477699999999999     47.976049999999994
H      48.731300000000005     46.590699999999998     50.285750000000000
H      48.471900000000005     47.158000000000001     51.909150000000004
H      48.601399999999998     49.672299999999993     51.237050000000004
H      50.318399999999997     45.762000000000000     47.583350000000003
H      50.103899999999996     47.430499999999995     49.045849999999994
H      48.895099999999999     50.522300000000001     48.997250000000001
H      49.460599999999999     46.458799999999997     45.224550000000001
H      45.801200000000009     48.899299999999997     47.587150000000001
H      47.622799999999998     46.912999999999997     44.090849999999996
H      45.681600000000003     48.259500000000003     45.576850000000000
