102

C      45.419199999999996     46.092159999999978     43.101849999999999
C      45.303100000000001     44.624459999999999     43.227850000000004
C      40.519700000000000     46.375459999999990     42.005549999999999
C      40.646200000000007     44.917760000000001     42.127650000000003
C      44.308100000000003     46.909160000000000     42.670349999999999
C      44.104200000000006     43.949460000000002     42.786050000000003
C      41.741200000000006     47.038259999999994     42.231850000000009
C      41.717900000000000     44.301659999999998     42.263950000000008
C      43.050899999999999     46.321159999999992     42.532450000000011
C      43.113100000000003     44.860860000000002     42.500450000000001
C      46.679600000000001     46.600859999999997     43.091750000000005
C      47.712800000000001     46.003059999999991     43.976150000000004
C      47.396200000000007     44.674759999999992     44.398550000000000
C      46.417299999999997     43.828159999999997     43.839449999999999
C      48.360200000000006     44.077259999999995     45.426150000000007
C      51.155500000000004     47.222459999999998     47.181950000000001
C      50.534200000000013     46.213859999999997     48.040250000000000
C      55.543600000000005     47.766159999999999     54.851150000000004
C      51.543600000000012     48.576659999999990     47.792249999999996
C      55.029300000000006     49.096502000000001     54.282350000000008
C      54.912200000000013     46.660259999999994     54.459750000000000
C      51.005600000000001     46.098959999999991     49.415150000000011
C      53.678399999999996     50.752570000000006     52.811750000000004
C      52.463400000000007     50.869270000000000     52.186250000000001
C      53.366800000000005     45.703659999999999     52.824550000000002
C      52.662100000000009     45.943659999999994     51.603849999999994
C      51.499800000000008     50.119600000000005     49.886150000000001
C      53.974200000000003     49.297308000000001     53.292050000000003
C      53.882900000000006     46.916159999999991     53.329650000000001
C      51.432100000000005     48.912899000000010     49.218750000000000
C      52.032400000000003     49.858540000000005     51.243650000000002
C      51.536600000000007     47.561259999999990     49.823350000000005
C      52.335600000000007     47.346859999999992     50.951850000000007
C      53.284600000000005     48.154460000000000     52.932050000000004
C      52.510000000000005     48.569459999999992     51.701250000000002
C      51.293900000000001     44.792760000000001     49.705950000000001
C      52.122000000000000     44.844359999999995     50.948750000000004
C      51.131000000000007     47.197559999999996     45.839250000000007
C      50.002500000000012     45.944359999999989     45.059349999999995
C      49.242200000000011     45.226460000000003     46.226450000000000
C      50.134900000000002     44.927560000000000     47.420450000000002
C      50.363500000000002     43.623260000000002     47.957250000000002
C      52.220400000000012     49.687920000000005     46.993650000000002
C      52.424600000000012     49.282584999999997     45.696150000000003
C      51.541300000000007     48.281759999999991     45.093450000000004
C      55.665900000000008     50.213730000000012     54.704950000000011
C      55.397800000000004     51.547029999999992     54.207350000000005
C      54.315500000000000     51.943290000000005     53.341750000000005
C      50.630700000000004     51.174970000000002     49.476450000000000
C      50.641000000000005     52.717889999999997     49.794850000000011
C      53.445500000000010     50.148200000000003     45.015950000000004
C      48.954000000000001     46.678860000000000     44.279550000000000
C      54.241500000000002     49.814589999999995     44.180050000000008
C      53.750800000000005     46.192359999999994     43.511150000000001
C      51.033000000000001     45.283159999999995     44.152050000000003
C      52.769900000000007     46.567059999999998     42.572350000000000
C      51.422100000000000     46.110559999999992     42.921050000000008
C      53.006400000000014     47.296160000000000     41.181850000000011
C      50.475800000000007     46.640459999999990     41.971550000000008
C      52.125699999999995     48.382459999999995     41.230150000000009
C      50.786900000000003     47.934259999999995     41.379450000000006
H      39.575800000000001     47.083359999999999     41.790750000000003
H      39.772100000000009     44.606759999999994     42.492550000000008
H      44.474600000000002     47.947859999999991     42.597050000000010
H      44.115300000000005     42.804360000000003     42.873750000000001
H      41.528000000000006     48.118659999999991     42.122050000000002
H      41.657200000000003     43.104860000000002     42.378950000000003
H      46.854500000000002     47.672060000000002     42.823149999999998
H      46.252300000000005     42.741259999999997     43.893950000000004
H      48.929199999999994     43.379260000000002     44.754649999999998
H      50.071900000000014     42.616360000000000     47.653649999999999
H      56.257199999999997     47.468260000000001     55.647849999999991
H      51.952600000000004     51.771689999999992     52.044049999999999
H      52.464100000000002     43.693159999999992     51.332250000000002
H      48.252399999999994     43.186059999999998     46.112650000000002
H      51.684500000000007     53.265690000000006     49.734350000000006
H      52.937399999999997     50.394140000000007     47.562750000000008
H      51.469100000000012     48.338759999999994     43.976749999999996
H      56.424199999999999     50.072400000000002     55.563249999999996
H      55.940300000000001     52.420130000000000     54.721550000000008
H      54.462600000000009     53.018779999999992     53.189250000000001
H      50.675799999999995     53.104330000000004     50.885249999999999
H      49.865399999999994     53.383640000000000     49.241150000000005
H      56.055000000000007     45.131659999999997     55.030349999999999
H      53.373999999999995     43.673459999999992     53.220350000000010
H      54.077200000000005     48.728578600000006     43.686650000000000
H      48.592400000000012     45.869759999999999     46.703350000000000
H      49.019300000000001     47.834159999999997     43.861149999999995
H      53.510500000000000     51.236790000000013     45.222349999999992
H      54.871600000000001     50.410990000000012     43.651450000000011
H      50.953600000000002     44.219459999999998     43.936350000000004
H      55.066500000000005     46.105959999999996     43.261050000000012
H      52.006100000000004     45.116360000000000     45.157950000000000
H      53.741800000000005     46.165359999999993     44.598849999999999
H      53.682400000000001     46.817359999999994     40.352150000000009
H      49.544399999999996     46.249459999999999     42.125250000000008
H      51.864900000000006     49.149897999999993     40.635350000000003
H      49.997300000000010     48.740047000000004     41.080250000000007
N      50.866600000000005     43.676859999999991     49.110250000000008
O      49.590500000000006     51.045340000000010     48.950649999999996
O      55.083200000000005     45.408360000000002     54.991950000000003
O      53.729100000000003     44.528959999999998     53.451250000000002
