22

C      47.730249999999991     50.783284999999992     48.654999999999994
C      48.627049999999997     49.767184999999998     49.537999999999997
C      47.455550000000002     49.798985000000002     47.459199999999996
C      47.860050000000001     48.406655000000001     49.869699999999995
C      47.681449999999998     48.223044999999999     47.438499999999991
C      47.615650000000002     47.525314999999999     48.627199999999988
C      48.038950000000000     47.614055000000000     46.157199999999989
C      47.708549999999995     46.143194999999999     48.397999999999996
C      47.549650000000000     46.195565000000002     45.934100000000001
C      47.904150000000001     45.446024999999999     47.224099999999993
H      48.025750000000002     51.609985000000002     48.088799999999992
H      46.834449999999997     51.186084999999999     48.839299999999994
H      49.659250000000000     49.511685000000000     49.091099999999997
H      48.521749999999997     50.293984999999999     50.511099999999999
H      48.113650000000000     50.001285000000003     46.643799999999999
H      46.340750000000000     49.882584999999999     47.224699999999999
H      46.817749999999997     48.914884999999998     50.038199999999989
H      48.151350000000008     48.168855000000001     50.893400000000000
H      48.255549999999999     48.283675000000002     45.335499999999996
H      48.064650000000000     45.671945000000001     49.334399999999988
H      47.024549999999998     45.665664999999997     45.106600000000000
H      47.841549999999998     44.390014999999998     47.230599999999995
