16

C      48.534737999999990     49.616549999999989     47.184449999999991
C      48.139408000000003     46.815949999999994     46.304050000000004
C      48.203538000000009     48.538949999999993     47.838050000000010
C      48.461378000000011     47.219849999999994     47.393850000000000
C      47.730348000000006     48.746849999999995     49.161650000000009
C      48.722008000000002     46.282649999999997     48.364550000000008
C      47.521647999999999     47.507849999999998     49.890450000000001
C      48.159418000000002     46.266849999999998     49.716350000000006
H      49.091087999999999     49.576449999999994     46.110450000000000
H      48.454937999999999     50.456150000000001     47.846950000000007
H      48.788148000000007     46.342149999999997     45.468350000000001
H      47.434138000000004     47.423049999999996     45.858850000000004
H      47.101088000000004     49.394449999999999     49.582250000000002
H      49.335678000000001     45.543849999999999     47.824250000000006
H      46.664321999999999     47.312849999999990     50.495750000000001
H      48.151408000000004     45.566049999999997     50.531649999999999
