87

C      48.190344999999994     51.474699999999984     45.719249999999995
C      48.090644999999995     50.412999999999997     46.667850000000001
C      44.340334999999996     48.883099999999999     51.432550000000006
C      47.013844999999996     52.373400000000004     45.587049999999998
C      42.984494999999995     49.350400000000008     51.673850000000002
C      46.775145000000002     49.909800000000004     46.990749999999991
C      44.833615000000002     49.348200000000006     50.084750000000000
C      41.318474999999999     51.481200000000001     51.204549999999998
C      41.708075000000001     52.545200000000008     50.553349999999995
C      42.989784999999998     52.860200000000006     48.264049999999997
C      42.372695000000000     50.379500000000007     50.826149999999998
C      45.788944999999998     52.373400000000004     46.500850000000000
C      42.515144999999997     52.254900000000006     49.486350000000002
C      44.034694999999999     52.216500000000011     47.519649999999999
C      45.720874999999999     50.863699999999994     46.981049999999996
C      44.229484999999997     50.299599999999998     49.285449999999997
C      42.995604999999998     50.923600000000008     49.774550000000005
C      44.624884999999999     50.991500000000002     47.955149999999989
C      49.127144999999999     51.528700000000001     44.647149999999996
C      50.236044999999997     50.559300000000007     44.632149999999996
C      50.453444999999995     49.785499999999999     45.842449999999999
C      49.345144999999995     49.635400000000004     46.712550000000000
C      44.921144999999996     48.125600000000006     52.500050000000002
C      44.158444999999993     47.553700000000006     53.630150000000000
C      42.910934999999995     48.131900000000002     53.837350000000001
C      42.366234999999996     49.029700000000005     52.895250000000004
C      49.009044999999993     52.181800000000010     43.338749999999997
C      49.999144999999999     51.903900000000007     42.258850000000002
C      51.030344999999997     51.039900000000003     42.358950000000000
C      51.071745000000000     50.261499999999998     43.539049999999996
C      47.804645000000001     52.863600000000005     43.213949999999997
C      46.861145000000000     52.848600000000005     44.270949999999999
C      51.806144999999994     49.240800000000007     46.325449999999989
C      51.856045000000002     48.083100000000002     47.246049999999997
C      50.522145000000002     47.717399999999998     47.897849999999998
C      49.498044999999998     48.740899999999996     47.904949999999999
C      48.248145000000001     47.317300000000003     49.393549999999991
C      48.460144999999990     48.605699999999999     48.934449999999998
C      40.552504999999996     51.052000000000007     52.535350000000001
C      40.998804999999997     49.756900000000002     53.171450000000007
C      45.620884999999994     53.737499999999997     44.065750000000001
C      46.412644999999998     48.036100000000005     52.474050000000005
C      52.585844999999999     46.376300000000001     49.504950000000008
C      53.130244999999995     47.014499999999998     48.327550000000002
C      52.389445000000002     44.930199999999999     49.943950000000001
C      54.292044999999995     45.919600000000003     47.888750000000002
C      53.052444999999999     43.994000000000000     49.061450000000001
C      54.231744999999997     44.637500000000003     48.677250000000001
C      53.111545000000000     42.750000000000000     49.759649999999993
C      55.397545000000001     43.823099999999997     48.777149999999992
C      54.256444999999992     42.009900000000002     50.241549999999997
C      55.446544999999993     42.538799999999995     49.499850000000009
H      45.848284999999997     48.902799999999999     49.903549999999996
H      41.377544999999998     53.527000000000001     50.863650000000007
H      42.517485000000001     53.850200000000001     47.917550000000006
H      42.156005000000000     47.878799999999998     54.647950000000002
H      49.848244999999999     52.515900000000002     41.352049999999998
H      51.678644999999996     51.103300000000004     41.579549999999998
H      51.452444999999990     49.374399999999994     43.986750000000001
H      47.513044999999998     53.440500000000000     42.382550000000002
H      51.995844999999996     47.143600000000006     46.496749999999999
H      50.225944999999989     46.708700000000007     48.400849999999991
H      49.095544999999994     46.483199999999997     49.166550000000001
H      47.349544999999999     46.750399999999999     49.829149999999998
H      47.794244999999997     49.430300000000003     49.178150000000002
H      46.577345000000001     49.007500000000007     47.520350000000001
H      40.137944999999995     49.117199999999997     52.981450000000009
H      40.881674999999994     49.862800000000007     54.229149999999997
H      52.811744999999995     50.894000000000005     46.383249999999990
H      44.794094999999999     53.215600000000009     44.760449999999999
H      45.220214999999996     54.124000000000009     43.095750000000002
H      46.027544999999996     54.914400000000001     44.388249999999999
H      46.922244999999997     48.226399999999998     51.505049999999997
H      46.665144999999995     47.266300000000001     53.237049999999996
H      52.113345000000002     47.272400000000005     50.091750000000005
H      53.519844999999997     47.998699999999999     48.124350000000007
H      52.008744999999998     44.672600000000003     50.931650000000005
H      54.365344999999998     45.642799999999994     46.724849999999989
H      55.396344999999990     46.295699999999997     47.728149999999999
H      52.011945000000004     42.262900000000002     49.669550000000001
H      56.481045000000002     43.701499999999996     48.369749999999996
H      54.154544999999992     41.085599999999999     50.756549999999997
H      56.412244999999992     42.089299999999994     50.011749999999999
N      44.844985000000001     53.107700000000008     46.775049999999993
O      39.518954999999998     51.600800000000007     52.743850000000009
O      44.571354999999997     46.664400000000001     54.337949999999992
O      52.922644999999996     49.942000000000007     46.455550000000002
