6

C      47.973192999999995     47.239949999999993     48.033649999999994
C      47.917183000000001     48.566150000000000     48.385050000000000
H      47.157448000000002     46.918249999999993     47.614950000000000
H      48.862333000000000     46.677450000000000     48.127649999999996
H      47.137667000000000     49.322550000000000     48.175350000000002
H      48.734053000000010     49.111349999999995     48.089950000000009
