45

C      48.899599999999992     47.516264999999990     48.681499999999993
C      48.908299999999997     46.608064999999989     49.827100000000002
C      44.176500000000004     46.725464999999993     49.014600000000002
C      47.639600000000002     47.972797000000000     48.103899999999996
C      47.600700000000003     45.875964999999987     50.217399999999998
C      44.862799999999993     47.697447000000004     48.157100000000000
C      45.129499999999993     46.076164999999996     49.852500000000006
C      46.292999999999992     47.528064999999991     48.420400000000001
C      46.387599999999992     46.492364999999999     49.515900000000002
C      50.036499999999990     48.138026000000004     48.152500000000003
C      51.259199999999993     48.023687000000002     48.809500000000000
C      51.191299999999998     47.201664999999998     50.007099999999994
C      50.020200000000003     46.386264999999987     50.522500000000001
C      50.176999999999992     49.094145000000005     46.891300000000001
C      51.376499999999993     49.691184999999997     46.586399999999998
C      52.490299999999991     48.761755000000001     46.694699999999997
C      52.511399999999995     48.119126000000001     48.044100000000000
C      48.856499999999997     49.524345000000004     46.551099999999998
C      47.715199999999996     48.919994999999993     47.075400000000002
C      48.618399999999994     50.748694999999991     45.570799999999998
C      48.861199999999997     50.874095000000004     44.304600000000001
C      47.594300000000004     44.640364999999996     50.878200000000000
C      53.424999999999997     46.768264999999992     48.314099999999996
C      42.865799999999993     49.522415000000002     47.173299999999998
C      44.022199999999998     48.918334999999999     47.912300000000002
H      43.026799999999994     46.563164999999991     48.944000000000003
H      44.761899999999997     45.290364999999987     50.563400000000001
H      51.949699999999993     46.622264999999992     50.326499999999996
H      53.359399999999994     49.133744999999998     46.006200000000000
H      47.800299999999993     51.711404999999992     47.040399999999998
H      46.747299999999996     49.332815000000004     46.829300000000003
H      48.936599999999999     51.728424999999994     43.801000000000002
H      49.195099999999996     49.965305000000001     43.875999999999998
H      49.536999999999992     45.059564999999999     52.198999999999998
H      46.566000000000003     44.431464999999996     51.328800000000001
H      48.218999999999994     44.112064999999994     51.568500000000000
H      54.205600000000004     46.840364999999998     49.038799999999995
H      52.970999999999989     45.901664999999987     48.820700000000002
H      54.045000000000002     46.367464999999989     47.463300000000004
H      51.753599999999992     50.392935000000001     45.899600000000000
H      42.871600000000001     50.481535000000001     47.365800000000000
H      43.569000000000003     48.856724999999990     48.983899999999998
H      41.794399999999996     49.215145000000000     47.081400000000002
O      48.247699999999995     51.887935000000006     46.212400000000002
O      50.221899999999991     45.423064999999987     51.595600000000005
