6

C      47.675359999999991     47.341049999999989     48.096899999999998
C      48.430090000000007     48.465249999999997     48.208799999999997
H      47.864779999999996     46.839649999999999     46.977400000000003
H      46.790999999999997     47.177450000000000     48.698999999999998
H      49.209000000000003     48.322749999999999     47.548800000000000
H      48.333629999999999     49.160350000000001     49.022599999999997
