5

C      48.241349999999997     47.585199999999986     48.049149999999990
H      48.008749999999999     48.772500000000001     48.051450000000003
H      48.770249999999997     47.311000000000000     48.981650000000002
H      48.453550000000000     47.440700000000000     47.018349999999998
H      47.229750000000003     47.227499999999999     48.580750000000009
