21

C      50.736914999999996     49.671923999999990     48.393549999999991
C      49.982515000000006     48.279364000000001     48.369849999999992
C      48.677515000000000     48.518833999999998     48.303450000000005
C      46.271415000000005     48.330643999999999     49.961849999999991
C      47.514615000000006     47.624834000000000     47.961049999999993
C      46.394715000000005     47.906513999999994     48.650349999999996
C      47.369515000000007     47.078133999999999     46.613149999999997
C      45.296945000000008     47.122554000000001     48.258549999999993
C      46.175115000000005     46.340530000000001     46.213249999999995
C      45.092925000000008     46.327812999999999     47.052749999999996
H      50.105415000000008     50.419513999999999     49.029850000000003
H      50.438815000000005     50.206544000000001     47.552950000000003
H      50.384515000000007     47.355743999999994     48.590150000000001
H      47.159515000000013     48.800474000000001     50.573749999999997
H      48.536315000000002     49.559483999999998     48.260150000000003
H      45.267065000000002     48.277533999999996     50.517450000000004
H      51.747714999999999     49.403423999999994     47.982650000000000
H      48.057214999999999     47.128803999999995     46.043649999999992
H      44.466755000000006     46.952264000000000     49.152750000000005
H      46.279215000000008     45.580486000000001     45.426250000000003
H      44.252285000000001     45.661057999999997     47.244549999999997
