16

C      49.471999999999994     49.457150000000006     46.852499999999999
C      49.134499999999996     49.792650000000009     48.133800000000008
C      48.492300000000000     48.698250000000002     46.227000000000004
C      48.243200000000002     48.725250000000003     48.637600000000006
C      47.972100000000005     48.085550000000012     47.406300000000002
C      47.560700000000004     48.416850000000011     49.832000000000008
C      47.224899999999998     46.772850000000005     47.359300000000005
C      46.683199999999999     47.335450000000009     49.746400000000008
C      46.658300000000004     46.470850000000013     48.520899999999997
H      48.544599999999996     48.248350000000002     45.237099999999998
H      50.219000000000001     50.010050000000007     46.161000000000001
H      49.590800000000002     50.586050000000000     48.792900000000003
H      47.596600000000002     48.878250000000008     50.762900000000002
H      47.048300000000005     46.238350000000011     46.431600000000003
H      45.957900000000002     47.064450000000008     50.574700000000007
H      45.780999999999999     45.413950000000000     48.501199999999997
