36

C      48.862449999999988     47.662249999999993     48.203449999999997
C      47.393149999999991     47.542450000000002     47.974450000000004
C      48.460449999999994     43.299849999999999     49.219250000000002
C      49.732950000000002     46.622850000000000     48.743850000000009
C      46.811849999999993     46.230049999999999     47.904449999999997
C      49.569749999999999     44.180850000000000     49.290250000000000
C      47.368150000000000     43.647549999999995     48.311650000000000
C      48.945449999999994     45.414450000000002     48.868949999999998
C      47.600549999999998     45.064250000000001     48.200450000000004
C      49.153349999999989     49.018250000000009     47.976550000000003
C      48.155249999999995     50.062449999999998     47.545450000000002
C      46.577649999999991     48.582149999999999     47.325050000000005
C      50.579049999999995     49.190150000000003     47.950350000000000
C      51.054949999999991     50.444149999999993     47.370150000000010
C      50.136649999999989     51.486450000000005     47.444150000000008
C      48.765450000000001     51.321649999999998     47.322350000000000
C      51.407950000000000     48.016150000000003     48.347549999999998
C      45.636749999999992     45.869550000000004     47.055549999999997
C      44.408549999999991     46.159649999999999     47.840750000000000
C      47.816749999999999     52.500850000000000     46.764350000000007
H      44.407349999999994     46.146550000000005     48.923950000000005
H      48.588849999999994     42.487250000000003     50.018850000000000
H      50.467449999999999     44.356549999999999     49.942950000000010
H      46.441249999999997     43.150250000000000     47.814650000000000
H      52.252749999999992     50.648750000000000     47.289250000000010
H      50.539850000000001     52.524649999999994     47.363849999999999
H      43.478650000000002     45.466949999999997     47.253749999999997
H      43.946249999999992     47.176850000000002     47.579650000000001
H      47.301749999999998     52.709350000000001     47.771749999999997
H      46.782150000000001     52.061850000000007     46.289349999999999
H      48.278049999999993     53.512749999999997     46.718350000000001
H      45.731549999999999     47.980049999999999     46.931849999999997
N      46.934449999999998     49.777150000000006     47.187650000000005
N      50.965449999999990     46.724850000000004     48.807749999999999
O      45.898649999999989     45.527149999999999     45.981150000000000
O      52.521349999999998     48.179150000000000     48.602150000000009
