31

C      47.768149999999999     48.193849999999983     47.487150000000000
C      48.781350000000003     47.210849999999994     47.237549999999999
C      47.940049999999999     46.685950000000005     51.827849999999998
C      47.482650000000007     48.536249999999995     48.821449999999999
C      49.028450000000007     46.458449999999999     48.436449999999994
C      47.569749999999999     47.970150000000004     51.502949999999998
C      47.988550000000004     47.945850000000007     50.065550000000002
C      48.542950000000005     46.725149999999999     49.757849999999991
C      47.209649999999996     48.816950000000006     46.249650000000003
C      47.535750000000007     48.294749999999993     44.940250000000006
C      48.818950000000001     47.591949999999997     45.005150000000000
C      46.378950000000003     49.993650000000002     46.294250000000005
C      46.103350000000006     50.499549999999999     45.108550000000008
C      46.072050000000004     49.832350000000005     43.925750000000008
C      46.786950000000004     48.665549999999996     43.844350000000006
C      49.907150000000001     45.263649999999998     48.096750000000000
C      46.992450000000005     49.082049999999995     52.285550000000001
H      45.670050000000003     51.464250000000007     45.100750000000005
H      47.773449999999997     46.087750000000000     52.884150000000005
H      46.899850000000001     49.381249999999994     48.840450000000004
H      49.346850000000003     47.430049999999994     44.041349999999994
H      46.284750000000003     50.481449999999995     47.201250000000002
H      45.855249999999998     50.633650000000003     43.177750000000003
H      47.112449999999995     48.285750000000007     42.683049999999994
H      50.329949999999997     45.119950000000003     47.020049999999998
H      45.853049999999996     48.848450000000000     52.257950000000008
H      47.278549999999996     48.773049999999998     53.316950000000006
H      47.518950000000004     49.951449999999994     52.310849999999988
N      48.586849999999998     45.935749999999999     50.865150000000000
N      49.354650000000007     47.119950000000003     46.087450000000004
O      49.973250000000007     44.535749999999993     49.056349999999995
