40

C      47.961749999999995     47.794299999999993     48.176949999999991
C      46.925750000000001     47.749399999999994     49.107949999999995
C      48.489749999999994     43.528099999999995     49.823850000000000
C      48.414450000000002     46.561599999999999     47.617550000000001
C      48.912950000000002     44.200999999999993     48.729649999999999
C      47.453650000000003     44.323899999999995     50.349150000000002
C      48.202750000000002     45.418799999999990     48.484749999999998
C      47.224249999999998     45.569999999999993     49.655650000000001
C      48.454650000000008     48.972299999999990     47.467949999999995
C      47.752549999999999     50.277899999999988     47.668550000000003
C      46.954750000000004     50.414299999999997     48.894550000000002
C      46.338549999999998     49.048599999999993     49.423350000000006
C      49.389250000000004     48.937399999999997     46.394749999999995
C      49.676150000000000     50.288799999999995     45.908049999999996
C      49.388550000000002     51.534599999999998     46.394749999999995
C      48.079750000000011     51.471299999999999     47.175850000000004
C      48.968849999999996     46.478999999999999     46.231050000000003
C      50.044949999999993     47.522999999999996     46.192850000000000
C      46.738750000000003     43.640199999999993     51.494949999999996
C      50.638750000000002     47.663799999999995     44.688549999999999
C      45.074050000000000     48.994099999999989     50.050249999999998
H      47.620750000000001     50.816999999999993     49.627649999999996
H      46.370249999999999     42.568500000000000     51.658049999999996
H      49.739049999999999     43.836500000000001     48.012049999999995
H      49.059350000000002     42.684500000000000     50.092750000000002
H      46.175850000000004     51.369599999999991     48.639550000000007
H      50.196849999999998     50.418399999999991     45.009049999999995
H      47.692050000000002     52.493099999999998     47.645649999999996
H      48.284649999999999     46.552899999999994     45.384549999999997
H      49.438250000000004     45.535600000000002     46.265450000000008
H      50.880350000000000     47.355300000000000     46.791249999999998
H      49.176350000000006     53.431500000000000     45.866250000000001
H      51.014350000000000     46.524299999999997     44.624249999999996
H      51.518349999999998     48.457799999999992     44.495750000000008
H      49.724150000000002     48.193100000000001     43.932449999999996
H      44.549650000000000     47.880699999999990     50.538149999999995
H      44.481650000000002     49.872000000000000     50.293450000000000
N      46.663350000000001     46.712400000000002     49.812750000000001
O      46.212350000000001     44.563000000000002     52.067550000000004
O      49.692750000000011     52.762799999999999     45.976750000000003
