51

C      47.982599999999991     47.380649999999996     48.418949999999995
C      47.047499999999999     48.061750000000004     49.265050000000009
C      51.116099999999996     51.266189999999995     48.514850000000003
C      50.067699999999995     52.057360000000003     49.169450000000005
C      49.319300000000005     47.927949999999996     48.175950000000007
C      47.411200000000001     49.395120000000006     49.599650000000004
C      50.887200000000000     49.887300000000010     48.332150000000006
C      49.301899999999996     51.213830000000002     50.232950000000002
C      49.578299999999999     49.360060000000004     48.575650000000003
C      48.651100000000000     50.047100000000000     49.416950000000007
C      47.455099999999995     46.128450000000001     47.928150000000002
C      46.017299999999999     45.865250000000003     47.960050000000003
C      45.228400000000001     46.423549999999992     48.937750000000001
C      45.715100000000000     47.548749999999998     49.569750000000006
C      51.956099999999999     53.319210000000005     48.353450000000002
C      50.953899999999997     54.056569999999994     49.020149999999994
C      49.807899999999997     53.421270000000007     49.521950000000011
C      48.389000000000003     45.744550000000004     46.812850000000005
C      47.862600000000000     44.391750000000002     46.259550000000004
C      46.419100000000000     44.185749999999999     46.255050000000004
C      45.624099999999999     44.698750000000004     47.383850000000002
C      49.761400000000002     46.005549999999999     46.725450000000002
C      50.314399999999999     47.036749999999998     47.492950000000000
C      48.512700000000002     43.118549999999999     45.935450000000003
C      45.481699999999996     43.048249999999996     45.927650000000007
C      45.185299999999998     42.013750000000002     46.821450000000006
C      43.601999999999997     42.165049999999994     46.748049999999999
C      48.504299999999994     53.993070000000003     49.860149999999997
H      49.100800000000000     51.864570000000001     51.274549999999998
H      46.713100000000004     50.115830000000003     50.020350000000001
H      51.692100000000003     49.158987000000003     47.978050000000003
H      50.140999999999998     50.733729999999994     50.783950000000004
H      44.043900000000001     46.333349999999996     49.162450000000000
H      45.382300000000001     47.749250000000004     50.524850000000008
H      52.826100000000004     53.778990000000007     48.334949999999999
H      51.036300000000004     55.171350000000004     49.023450000000004
H      44.598300000000002     44.584049999999991     47.895650000000003
H      51.562999999999995     46.918549999999996     47.680250000000008
H      47.914899999999996     42.251750000000001     45.160249999999998
H      45.965100000000000     42.179050000000004     47.642650000000003
H      45.414600000000000     40.828649999999996     46.516449999999999
H      50.582500000000003     45.202349999999996     45.241750000000003
H      43.386800000000001     41.450649999999996     45.924849999999999
H      43.399300000000004     42.099949999999993     47.817349999999998
H      43.173899999999996     43.297849999999997     46.536549999999998
H      48.502000000000002     55.073790000000002     49.774549999999998
H      47.459200000000003     53.594099999999997     49.963450000000002
N      52.139699999999998     52.028830000000006     48.077249999999999
O      48.890999999999998     42.303550000000001     46.701150000000005
O      45.286200000000001     43.137549999999990     44.725450000000002
O      50.817199999999993     45.129849999999990     46.191949999999999
