44

C      46.713999999999992     45.950549999999993     46.717748499999985
C      48.481700000000004     48.871150000000000     50.159248500000004
C      47.345299999999995     50.950850000000003     45.647548499999999
C      47.564399999999992     46.125050000000016     48.011748499999996
C      46.451300000000003     47.046050000000008     45.893448500000005
C      48.612099999999998     47.524150000000006     49.676048499999993
C      46.942599999999999     49.640950000000004     45.441348500000004
C      48.790300000000002     49.848950000000002     49.135648500000002
C      47.846099999999993     51.010950000000008     47.146948499999993
C      48.102099999999993     47.306250000000006     48.288548500000005
C      47.028399999999991     48.311950000000010     46.189548500000001
C      48.076300000000003     49.822850000000003     47.861848499999994
C      47.733800000000002     48.502550000000014     47.385548499999999
C      46.196500000000000     44.675350000000009     46.340448499999994
C      46.445300000000003     43.695550000000011     47.328848499999992
C      46.975700000000003     43.786450000000002     48.579248500000006
C      47.721199999999996     44.835750000000004     48.786748500000002
C      48.457700000000003     45.017950000000013     49.964748499999999
C      48.660600000000002     46.290850000000006     50.419248499999995
C      48.382599999999996     49.588350000000005     51.373048499999996
C      48.890299999999996     50.880750000000006     51.742148499999999
C      49.377499999999998     51.632950000000008     50.709248500000001
C      49.804500000000004     50.847650000000002     49.504048499999996
C      47.258299999999991     51.819850000000002     44.573548500000001
C      46.284999999999997     49.335150000000013     44.252548500000003
C      48.017099999999999     52.164250000000010     47.737248499999993
H      47.730199999999996     49.537750000000003     52.242848499999994
H      46.009699999999995     46.606050000000010     44.934848500000001
H      45.399699999999996     44.313250000000011     45.503648499999997
H      45.916699999999992     42.702050000000000     47.104948499999992
H      47.134100000000004     43.040250000000000     49.490748499999995
H      49.181899999999999     45.998250000000013     51.379748500000005
H      48.631599999999992     51.496350000000007     52.652151500000002
H      50.201899999999995     51.702550000000016     48.913648499999994
H      48.976299999999995     44.096050000000005     51.648848500000000
H      50.600300000000004     53.297950000000000     50.464048500000004
H      46.732199999999992     51.274850000000015     43.721148499999998
H      47.290300000000002     52.815750000000008     44.879248500000003
H      46.251300000000001     49.950050000000005     43.347848499999998
H      45.797600000000003     48.447150000000008     44.144648500000002
H      48.036999999999992     53.219050000000010     47.305148500000001
H      48.280299999999997     52.192750000000004     48.867948499999997
O      48.773099999999999     43.927350000000004     50.652148499999996
O      49.764200000000002     52.931750000000008     51.074948500000005
