7

C      47.875929999999997     48.102799999999988     48.271599999999992
C      47.507419999999996     46.924400000000006     48.563099999999999
C      48.092120000000008     49.094499999999996     47.384399999999999
H      48.503389999999996     49.999700000000004     47.743299999999998
H      47.908100000000005     46.463700000000003     49.520699999999998
H      47.649520000000010     46.000299999999996     47.872399999999999
H      47.496610000000004     48.947700000000012     46.479300000000002
