18

C      47.259449999999994     49.176050000000004     46.467282999999995
C      49.441549999999992     47.652950000000004     46.071922999999998
C      47.636249999999997     48.288350000000008     47.664983000000007
C      48.625450000000001     47.259250000000009     47.293863000000016
C      46.712750000000000     48.365949999999998     48.781323000000000
C      48.970950000000002     46.635249999999999     48.499133000000000
C      46.950249999999997     47.455250000000007     49.759813000000008
C      48.287149999999997     46.863650000000007     49.804282999999998
H      50.248550000000002     46.883250000000004     45.699913000000009
H      46.990049999999997     50.115449999999996     47.128413000000009
H      46.337049999999998     48.794449999999998     45.765363000000008
H      48.565449999999998     47.799250000000001     45.296947000000003
H      49.893150000000006     48.671250000000001     45.917793000000003
H      45.751449999999998     48.902050000000003     48.810063000000000
H      49.760049999999993     45.884550000000004     48.324723000000006
H      46.362949999999998     47.585750000000004     50.703052999999997
H      48.371749999999992     46.454350000000005     50.550933000000015
H      48.264150000000001     49.781549999999996     45.975563000000008
