34

C      46.979099999999988     48.678099999999993     47.903349999999996
C      46.934199999999997     47.980399999999996     46.610349999999997
C      51.540999999999990     46.785699999999999     48.325249999999997
C      51.690099999999994     46.723500000000001     46.898250000000004
C      48.023999999999994     48.419399999999996     48.834350000000001
C      48.040099999999988     47.355399999999996     46.130949999999999
C      50.506099999999996     47.627200000000002     48.910349999999994
C      50.542199999999987     46.938699999999997     46.181550000000001
C      49.368099999999991     48.012799999999999     48.286950000000004
C      49.306199999999997     47.544199999999996     46.767350000000000
C      45.900399999999998     49.748900000000006     48.213049999999996
C      44.810399999999994     50.028800000000004     47.410750000000000
C      44.774499999999996     49.039699999999996     46.362049999999996
C      45.752199999999995     48.310499999999998     45.785849999999996
C      47.986999999999988     48.877299999999991     50.172749999999994
C      47.002899999999990     49.851900000000001     50.492950000000000
C      46.026299999999999     50.316699999999997     49.573850000000007
C      52.099599999999988     46.007500000000000     49.507649999999998
C      43.693499999999993     49.338899999999995     45.236249999999998
H      47.941699999999990     46.672399999999996     45.128850000000000
H      50.370100000000001     48.046999999999997     49.894649999999999
H      50.922099999999993     47.394799999999996     45.219949999999997
H      44.096999999999987     50.784199999999998     47.383650000000003
H      45.670199999999987     48.121299999999998     44.797650000000004
H      46.850899999999989     50.849999999999994     51.390349999999998
H      45.336299999999987     51.072900000000004     49.689250000000001
H      48.768899999999995     48.651499999999999     50.782650000000004
H      51.766599999999990     46.061199999999999     50.535449999999997
H      53.295600000000000     45.843399999999995     49.617150000000002
H      43.514599999999994     48.580999999999996     44.609650000000002
H      44.102100000000000     50.173299999999998     45.202650000000006
H      42.704400000000000     49.755400000000009     45.397350000000003
H      52.030499999999996     44.927099999999996     49.113150000000005
O      52.726099999999995     46.314200000000000     46.536250000000003
