19

C      47.368849999999995     46.793033499999993     49.389499999999991
C      46.746150000000000     46.051533500000005     50.418999999999997
C      47.858750000000001     47.572523500000003     48.455700000000000
C      47.763449999999992     50.184913500000008     46.999700000000004
C      48.490849999999995     48.169083499999999     47.389200000000002
C      47.651749999999993     48.994213500000001     46.675300000000000
C      49.375349999999997     47.474043500000008     46.214799999999997
C      46.588650000000001     48.237733500000004     46.181600000000003
C      48.248149999999995     46.473153499999995     45.706899999999997
C      47.105949999999993     47.025923500000005     45.556699999999999
H      47.312650000000005     45.158126499999995     50.535899999999998
H      49.453950000000006     48.430033500000008     45.722499999999997
H      48.708150000000003     50.645633500000002     47.146000000000001
H      46.905249999999995     50.841873500000005     46.810199999999995
H      50.424850000000006     46.780923500000000     46.259500000000003
H      45.575149999999994     48.574603499999995     46.088799999999999
H      48.467950000000002     45.597533499999997     45.372299999999996
H      46.448949999999996     46.256523500000000     45.129700000000000
H      45.729849999999999     46.508553500000005     50.870300000000000
