22

C      49.964199999999998     50.399699999999996     47.105749999999986
C      51.205399999999997     50.484600000000007     46.504650000000005
C      45.902600000000007     49.328400000000002     49.265149999999998
C      48.448400000000007     48.693000000000005     47.815350000000002
C      46.229700000000008     47.881599999999999     48.905750000000005
C      47.237499999999997     47.817799999999998     47.827549999999995
C      45.170299999999997     46.921600000000005     48.893049999999995
C      47.592900000000000     46.578400000000002     47.206550000000000
C      45.528500000000008     45.725200000000008     48.267949999999992
C      46.531800000000004     45.682300000000005     47.367950000000000
C      48.901799999999994     49.995400000000004     47.872350000000004
H      46.357500000000002     50.103100000000005     48.600249999999996
H      51.150199999999998     49.711300000000001     45.701550000000005
H      51.837800000000001     51.318199999999997     46.189550000000004
H      46.431500000000000     49.655300000000004     50.298449999999995
H      44.727000000000004     49.428500000000007     49.456349999999993
H      48.810600000000008     47.972200000000008     47.018849999999993
H      48.038399999999996     50.770700000000012     47.842449999999992
H      44.162199999999999     47.049900000000001     49.070050000000002
H      48.341800000000006     46.333700000000000     46.454950000000004
H      44.966700000000003     44.822000000000003     48.259250000000002
H      46.433000000000007     44.681800000000003     46.844850000000001
