5

C      47.998749999999994     47.814399999999999     47.784249999999993
H      48.932850000000002     47.161700000000003     47.689250000000001
H      47.387250000000009     47.798400000000001     48.749350000000000
H      47.870249999999999     48.838299999999997     47.309149999999995
H      47.067149999999998     47.507800000000003     47.250650000000000
