6

C      48.030599999999993     47.994564999999994     47.506749999999997
C      48.083299999999994     48.092945000000007     48.777650000000001
H      48.326999999999998     48.628754999999998     46.634750000000004
H      47.122000000000000     47.409455000000001     47.036350000000006
H      48.878000000000000     48.682465000000001     49.284950000000002
H      47.513499999999993     47.317534999999999     49.365249999999996
