22

C      45.626249999999992     47.271199999999993     48.874899999999997
C      46.947550000000007     46.370300000000000     48.882799999999996
C      45.871449999999996     48.525899999999993     47.985599999999998
C      47.241250000000001     46.071999999999989     47.303300000000000
C      47.256549999999997     48.538999999999987     47.315800000000003
C      47.867750000000001     47.405799999999999     46.857900000000001
C      47.945350000000005     49.783199999999994     47.167600000000000
C      49.145150000000001     47.665299999999988     46.301700000000004
C      49.363649999999993     49.818299999999994     47.031900000000000
C      50.098349999999996     48.743199999999987     46.450200000000002
H      44.714849999999998     46.924399999999991     48.402400000000000
H      45.551549999999999     47.609199999999987     49.896099999999997
H      46.568449999999999     45.639399999999995     49.735399999999991
H      47.806049999999999     46.876199999999997     49.022500000000001
H      45.087850000000003     48.572799999999987     47.234900000000003
H      45.790649999999999     49.544799999999995     48.424900000000001
H      47.822150000000008     45.194400000000002     47.063800000000001
H      46.179450000000003     45.713300000000004     46.830600000000004
H      47.502949999999998     50.671199999999999     47.573599999999999
H      49.620350000000002     46.664400000000001     46.103900000000003
H      49.748849999999990     50.805599999999998     47.339300000000001
H      51.285150000000002     48.765999999999991     46.436900000000001
