18

C      48.627249999999989     47.614299999999986     47.861799999999988
C      49.266249999999999     48.249200000000002     48.943700000000000
C      48.446950000000001     49.191999999999993     49.630599999999994
C      47.021150000000006     49.406599999999997     49.372099999999996
C      46.298450000000003     48.547399999999996     48.460799999999999
C      47.055950000000010     47.672399999999996     47.652499999999996
C      46.389049999999997     46.945200000000000     46.713799999999999
C      45.690350000000009     46.231299999999990     45.824800000000003
C      50.770049999999998     48.317200000000000     49.141500000000001
H      48.755750000000006     49.364800000000002     50.658999999999999
H      46.652050000000003     50.330300000000008     49.809000000000005
H      44.860150000000004     46.529200000000003     45.640799999999992
H      46.467050000000000     45.669699999999992     45.341000000000001
H      51.174149999999997     47.861599999999996     49.946300000000001
H      44.637950000000004     48.095500000000001     47.810300000000005
O      51.362049999999996     48.809500000000000     48.215899999999998
O      49.478450000000009     46.927899999999994     47.369499999999995
O      44.961550000000003     48.645300000000006     48.482599999999998
