56

C      49.402699999999996     51.213999999999992     43.154826499999999
C      47.658900000000003     48.265400000000000     45.961866499999999
C      48.753299999999996     47.409899999999993     46.239806500000000
C      47.774699999999996     49.664999999999992     50.570306500000001
C      48.040700000000001     48.254899999999992     50.939416499999993
C      47.090500000000006     49.183899999999994     46.986016500000005
C      48.746899999999997     46.855300000000000     47.572946500000000
C      47.293000000000006     50.153299999999987     49.230716500000000
C      48.536100000000005     47.389799999999994     49.976816499999998
C      47.541700000000006     49.039800000000000     48.390116499999991
C      48.228999999999999     47.755199999999988     48.618206499999999
C      47.358000000000004     48.042499999999990     44.487316499999991
C      47.807299999999998     49.118799999999993     43.548056500000001
C      48.361000000000004     50.408099999999990     43.772126499999999
C      49.818999999999988     46.893599999999992     45.373806500000001
C      48.135500000000008     50.504700000000000     51.677216500000000
C      49.266199999999998     50.098299999999995     52.780416500000001
C      49.055800000000005     48.745499999999993     53.258816499999995
C      48.042500000000004     48.078899999999990     52.476716499999995
C      46.397900000000007     50.360099999999989     46.520126500000003
C      45.227100000000007     50.157100000000000     45.780326500000001
C      46.192200000000000     47.138700000000000     43.950566499999994
C      49.328500000000005     45.538399999999996     47.809116500000002
C      50.522700000000000     45.290999999999997     46.961436500000005
C      50.715299999999999     45.965999999999994     45.652816500000000
C      47.524900000000002     51.645099999999999     51.669716500000007
C      47.935400000000001     51.304199999999994     45.006856499999998
C      48.747000000000000     44.111799999999988     47.656086500000001
C      50.200000000000003     50.809100000000001     53.198816500000007
H      49.954400000000007     52.386199999999988     43.494046499999996
H      46.211799999999997     47.346499999999992     42.843856500000001
H      48.884500000000003     51.499299999999991     42.316316499999999
H      46.797899999999998     51.033999999999992     48.809616500000004
H      49.511700000000005     48.311699999999988     54.238316499999996
H      47.513999999999996     47.117699999999999     52.843616499999996
H      45.111800000000002     51.012599999999992     45.360176499999994
H      46.830799999999996     51.471299999999999     46.717066500000001
H      44.542000000000002     49.196799999999996     45.874676500000007
H      50.310000000000002     50.509299999999996     42.865876499999999
H      45.216400000000007     47.535999999999987     44.322946500000000
H      51.449799999999996     44.795599999999993     47.393596500000001
H      51.457999999999998     45.502699999999990     45.018736500000003
H      48.584599999999995     52.186299999999989     45.247696500000004
H      49.961200000000005     47.334399999999988     44.356256500000001
H      48.877600000000001     46.414899999999989     50.366946499999997
H      48.256000000000000     49.298800000000000     41.761683500000004
H      47.183599999999998     51.947399999999988     44.528026499999996
H      48.208700000000007     50.701099999999997     46.062196499999999
H      48.220900000000000     43.892399999999995     46.425976499999990
H      47.665000000000006     43.998899999999992     48.022216499999999
H      49.548400000000001     43.316800000000001     48.146406499999998
H      51.082099999999997     51.201899999999995     52.499616499999988
H      50.964200000000005     50.605599999999995     53.962116499999993
H      46.303600000000003     46.181100000000001     44.248106500000006
O      46.915300000000002     52.683199999999999     51.556516500000001
O      47.814599999999999     48.718499999999992     42.244133500000004
