6

C      47.774699999999996     48.467899999999986     47.373649999999991
C      48.201599999999999     48.025499999999994     48.550950000000000
H      46.930000000000007     48.444800000000001     46.699449999999999
H      48.729900000000001     48.481800000000007     46.713750000000005
H      47.442599999999999     47.518199999999993     49.300550000000001
H      49.069999999999993     48.301199999999994     48.962750000000000
