22

C      49.340924999999991     49.432599999999994     46.503699999999995
C      49.378225000000000     47.963399999999993     46.078099999999992
C      49.204124999999998     49.764399999999995     47.984899999999996
C      49.477125000000001     46.988100000000003     47.300600000000003
C      48.191524999999999     48.728999999999999     48.591099999999997
C      48.351025000000000     47.344999999999999     48.275499999999994
C      47.191305000000000     49.150300000000001     49.465099999999993
C      47.913425000000004     46.381500000000003     49.199900000000000
C      46.482934999999998     48.153399999999991     50.217699999999994
C      46.851444999999998     46.748099999999994     50.117199999999997
H      50.155724999999997     50.079599999999999     45.853700000000003
H      48.245824999999996     49.678099999999986     45.948899999999995
H      50.155324999999991     47.930999999999997     45.154600000000002
H      48.656125000000003     47.676999999999992     45.460799999999992
H      50.069324999999992     49.855699999999999     48.678600000000003
H      48.443024999999999     50.611599999999996     48.311599999999999
H      49.312825000000004     45.983899999999991     46.885300000000001
H      50.477024999999998     47.057299999999998     47.938400000000001
H      47.031104999999997     50.203699999999998     49.475799999999992
H      48.341225000000001     45.388400000000004     49.270899999999997
H      45.522975000000002     48.119900000000001     50.845399999999998
H      46.109575000000000     45.915999999999997     50.366100000000003
