6

C      47.862949999999998     48.654999999999994     47.894700000000000
C      48.291449999999998     47.398800000000001     47.924700000000001
H      48.324150000000003     49.338099999999997     48.590199999999996
H      47.323350000000005     49.067900000000002     47.061400000000006
H      48.676649999999995     46.908699999999996     48.938599999999994
H      48.065650000000005     46.661900000000003     47.108300000000000
