6

C      47.518399999999986     47.601799999999990     47.627349999999993
C      48.718199999999989     48.013399999999997     48.147650000000006
H      46.885699999999993     48.223699999999994     46.802450000000000
H      46.703099999999999     47.058000000000000     48.179049999999997
H      49.296900000000001     47.626100000000008     49.197550000000000
H      49.221599999999988     48.942000000000000     47.841950000000004
