56

C      49.387449999999994     48.320049999999995     51.903649999999999
C      49.166350000000001     47.114050000000006     52.624449999999996
C      46.321750000000002     46.390749999999997     48.469049999999996
C      45.493750000000006     45.797349999999994     49.513750000000002
C      48.821950000000001     48.755049999999997     50.683350000000004
C      48.364750000000001     46.203249999999997     52.264349999999993
C      47.191550000000007     47.543049999999994     48.709450000000004
C      46.150250000000007     46.199650000000005     50.722949999999997
C      47.855250000000005     47.486450000000005     49.943049999999999
C      47.468250000000005     46.778750000000002     50.975149999999999
C      50.672950000000000     49.169849999999997     52.337450000000004
C      51.684550000000009     48.683549999999997     53.072349999999986
C      51.405950000000004     47.459050000000005     53.791150000000002
C      50.122349999999997     46.791749999999993     53.575649999999996
C      49.182550000000006     49.942650000000000     50.263750000000002
C      49.912850000000006     50.951649999999987     51.023449999999997
C      50.721450000000004     50.528450000000007     52.108049999999992
C      47.779450000000004     44.970950000000002     52.890950000000004
C      48.518150000000006     44.834450000000004     54.158349999999999
C      49.600650000000002     45.680350000000004     54.554149999999993
C      45.421550000000003     46.427049999999994     47.417550000000006
C      45.421650000000007     46.875249999999994     46.036850000000001
C      44.243850000000002     47.095950000000002     45.256450000000001
C      46.678350000000002     47.237449999999995     41.571550000000002
C      46.754750000000001     47.038950000000000     45.238849999999999
C      47.635950000000001     46.918149999999997     42.541049999999998
C      46.697950000000006     47.250749999999996     43.759450000000001
C      45.385150000000003     47.250649999999993     43.223150000000004
C      47.802750000000003     46.140150000000006     45.362650000000002
C      49.089950000000002     46.947649999999996     42.596549999999993
C      49.980550000000008     46.837549999999993     41.437849999999997
H      45.463550000000005     45.713549999999998     51.679050000000004
H      52.712750000000000     49.089449999999999     53.378950000000003
H      52.093150000000009     47.296049999999994     54.653649999999999
H      48.663650000000004     50.427650000000000     49.420649999999995
H      46.633850000000002     48.859449999999995     47.549750000000003
H      44.551050000000004     45.339650000000006     49.475650000000002
H      49.726950000000002     52.199749999999995     50.876149999999996
H      51.640349999999998     50.864149999999995     52.487949999999998
H      46.703850000000003     45.214550000000003     53.086649999999992
H      47.914850000000001     43.923749999999998     52.253149999999991
H      47.776750000000007     44.696449999999999     55.061250000000001
H      48.897450000000006     43.800250000000005     54.038249999999991
H      50.235950000000003     45.335750000000004     55.492649999999998
H      49.079750000000004     46.060149999999993     55.322449999999989
H      44.646450000000002     45.655349999999999     47.270749999999992
H      43.287250000000000     46.874650000000003     45.819749999999999
H      46.963950000000004     47.549250000000001     40.568449999999999
H      48.358350000000002     45.927250000000001     46.268249999999995
H      51.004950000000001     46.689449999999994     41.818849999999998
H      49.606150000000000     46.094750000000005     40.507350000000002
H      49.374150000000000     47.161349999999999     43.786649999999995
H      48.517850000000003     45.764349999999993     44.612150000000000
N      44.290450000000007     47.264750000000006     43.962750000000000
N      45.449650000000005     47.415750000000003     41.941050000000004
O      47.562650000000005     48.475949999999997     47.783349999999999
