26

C      48.212399999999995     48.764499999999991     47.324599999999990
C      47.301499999999997     48.087800000000001     48.306199999999990
C      50.366000000000000     45.008299999999998     48.536500000000004
C      49.320700000000002     48.089999999999996     46.866100000000003
C      47.488700000000001     47.087599999999995     49.202299999999994
C      50.956099999999999     46.190999999999995     47.714299999999994
C      49.231600000000000     45.237799999999993     49.366000000000000
C      49.612000000000009     47.060299999999998     47.799099999999996
C      48.794399999999996     46.503699999999995     48.882700000000000
C      48.266599999999997     50.110999999999997     46.721299999999999
C      47.121800000000000     50.657499999999999     47.168399999999991
C      46.122900000000001     49.938100000000006     47.893200000000007
C      46.101799999999997     48.715999999999994     48.554400000000001
C      44.855899999999998     50.875999999999991     48.263000000000005
H      50.892400000000009     44.190500000000000     48.535600000000002
H      50.037000000000006     48.515999999999998     46.148299999999992
H      46.862800000000000     46.690700000000000     50.016100000000009
H      51.386299999999999     45.968999999999994     46.772099999999995
H      51.708700000000000     46.713399999999993     48.060499999999990
H      48.951700000000002     50.646799999999999     45.983899999999991
H      47.040700000000001     51.809500000000000     46.897899999999993
H      45.323799999999999     48.719899999999996     49.483200000000011
H      48.523099999999999     44.537399999999998     49.772800000000004
H      45.312800000000003     51.515799999999999     48.878399999999999
H      44.291300000000000     50.438400000000001     49.222799999999992
H      44.336900000000000     51.492199999999997     47.584599999999995
