17

C      50.468649999999990     46.991099999999989     47.275349999999989
C      48.657649999999997     49.406699999999994     46.890149999999998
C      48.933650000000000     47.176200000000001     47.777749999999990
C      48.226649999999999     48.249199999999995     47.145849999999996
C      48.382349999999995     46.584099999999999     48.907949999999992
C      46.810949999999998     48.191399999999994     47.279750000000000
C      47.024549999999998     46.642900000000004     49.167049999999996
C      46.191449999999996     47.467300000000002     48.304649999999995
H      50.301249999999996     46.937099999999994     46.271549999999998
H      50.825749999999999     46.250700000000002     48.039849999999994
H      49.477449999999997     49.880000000000003     47.324149999999996
H      48.460049999999995     50.190599999999996     45.948249999999994
H      48.907950000000000     45.809400000000004     49.550649999999997
H      46.126249999999999     49.012999999999998     47.037949999999995
H      46.766049999999993     46.044400000000003     50.051750000000006
H      45.174250000000001     47.643700000000003     48.692449999999994
H      50.822049999999990     47.978299999999997     47.522249999999993
