77

C      52.492639999999994     50.722749999999998     51.232649999999985
C      44.349069999999998     45.072550000000007     47.190049999999992
C      51.998739999999998     49.416049999999998     50.821549999999995
C      45.803889999999996     44.804349999999999     47.391049999999993
C      51.458240000000004     51.657849999999996     51.497849999999993
C      44.151319999999998     46.510750000000002     47.334049999999991
C      50.731840000000005     49.181750000000008     50.152449999999995
C      46.697360000000003     45.831850000000003     47.750949999999996
C      48.766539999999992     51.964349999999996     51.710349999999991
C      47.484830000000002     51.310150000000007     51.665049999999994
C      44.335579999999993     48.666449999999998     49.006049999999995
C      45.734129999999993     49.862250000000003     50.777349999999991
C      48.026740000000004     48.338250000000002     49.525349999999996
C      49.993139999999997     51.240650000000002     51.315149999999988
C      44.787530000000004     47.439949999999996     48.291649999999997
C      47.410070000000005     50.171350000000004     50.783849999999994
C      45.552179999999993     48.910849999999996     49.738749999999996
C      49.715140000000005     50.181250000000006     50.447349999999993
C      46.180660000000003     46.961250000000007     48.384149999999991
C      48.440240000000003     49.591549999999998     50.340349999999994
C      46.683099999999996     48.087850000000003     49.196849999999991
C      50.483739999999997     47.851749999999996     49.646449999999994
C      49.213039999999992     47.526750000000007     49.326049999999995
C      53.844740000000002     51.148250000000004     51.492749999999994
C      55.000940000000000     50.339650000000006     51.340350000000001
C      54.567039999999992     49.015150000000006     51.118749999999991
C      53.198239999999998     48.612850000000009     50.689349999999997
C      52.745339999999999     47.188749999999999     50.274849999999994
C      51.626440000000002     47.017250000000004     49.431749999999994
C      43.742360000000005     43.925849999999997     46.575749999999992
C      44.275030000000001     42.605950000000007     46.614849999999997
C      45.708870000000005     42.379750000000001     46.896849999999993
C      46.461330000000004     43.438749999999999     47.356949999999991
C      51.929040000000001     52.998050000000006     51.611549999999994
C      53.268140000000002     53.399050000000003     51.442349999999990
C      54.265739999999994     52.491849999999999     51.712850000000003
C      43.412130000000005     47.083150000000003     46.129849999999998
C      43.169179999999997     46.464050000000000     44.927449999999993
C      42.253050000000002     44.272950000000009     46.386349999999993
C      43.171300000000002     49.782550000000001     48.966049999999996
C      40.881879999999995     49.776250000000005     47.697249999999997
C      42.998840000000001     50.502650000000003     47.617749999999994
C      41.931340000000006     50.297750000000008     46.675249999999991
C      44.118399999999994     51.192450000000008     46.839649999999992
C      41.722089999999994     50.790649999999999     45.307649999999995
C      44.007700000000000     51.460350000000005     45.520249999999997
C      42.855909999999994     51.241349999999997     44.744849999999992
H      42.097489999999993     45.246650000000002     46.734449999999995
H      47.777640000000005     45.500349999999997     47.897349999999996
H      49.042239999999993     52.808750000000003     52.375450000000001
H      46.426209999999998     51.640950000000004     52.044949999999993
H      40.704920000000001     49.997850000000000     48.790949999999995
H      48.776340000000005     46.657750000000007     48.788049999999991
H      56.006339999999994     50.741450000000000     51.555849999999992
H      55.064039999999991     48.012550000000005     51.009049999999995
H      53.006639999999990     46.311350000000004     50.933849999999993
H      51.200940000000003     46.114950000000007     48.806049999999992
H      43.748909999999995     41.760550000000009     46.586949999999995
H      46.391109999999998     41.484150000000000     47.087549999999993
H      47.352499999999992     43.336349999999996     47.863849999999992
H      51.238439999999997     53.859350000000006     51.684649999999991
H      53.589639999999989     54.515850000000000     51.194449999999996
H      55.413939999999997     52.957750000000004     51.726849999999999
H      43.267570000000006     48.134950000000003     46.471249999999991
H      42.779129999999995     47.123050000000006     44.061849999999993
H      43.473510000000005     45.418149999999997     44.807149999999993
H      41.578940000000003     43.672650000000004     47.015249999999995
H      41.823340000000002     44.395849999999996     45.097849999999994
H      39.993660000000006     50.134850000000000     47.247449999999994
H      43.411869999999993     50.387050000000002     49.912949999999995
H      42.319819999999993     49.487049999999996     49.445849999999993
H      41.202439999999996     48.650350000000003     47.887649999999994
H      45.069479999999999     51.568449999999999     47.194349999999993
H      40.653980000000004     50.594650000000001     44.889349999999993
H      44.803460000000001     52.030550000000005     45.102049999999991
H      42.786370000000005     51.492649999999998     43.624549999999999
O      44.861559999999997     50.368350000000007     51.439549999999997
