5

C      48.081399999999988     48.263599999999997     47.928950000000000
H      47.245899999999999     49.018700000000003     47.931749999999994
H      48.169000000000004     46.981299999999997     48.213450000000009
H      48.426499999999997     48.565400000000004     48.916749999999993
H      48.754100000000001     48.224899999999998     47.083250000000007
