22

C      47.882649999999991     50.582899999999995     46.200549999999993
C      47.438150000000000     49.206700000000005     50.590850000000003
C      48.729349999999997     49.378999999999998     45.997050000000002
C      47.079850000000000     49.331600000000002     49.225549999999998
C      48.146349999999998     48.335600000000007     46.834750000000000
C      47.495950000000001     48.360999999999997     48.022750000000002
C      48.628550000000004     47.099700000000006     46.396349999999998
C      46.924450000000000     47.067600000000006     48.362650000000002
C      48.540149999999997     45.879500000000000     47.202249999999992
C      47.160049999999998     45.878200000000000     47.636049999999997
H      48.538249999999998     51.143599999999999     45.596549999999993
H      47.988950000000003     50.776400000000002     47.297849999999997
H      48.726849999999999     49.134300000000003     44.846850000000003
H      47.391050000000000     48.148800000000001     50.934449999999984
H      47.223149999999997     50.137499999999996     51.153149999999997
H      49.778649999999999     49.566899999999997     46.171149999999997
H      46.720250000000000     50.379600000000003     45.934049999999999
H      46.559750000000001     50.093700000000005     48.728749999999991
H      49.505249999999997     47.313099999999999     45.602850000000004
H      46.221350000000001     47.008800000000001     49.014749999999992
H      49.313150000000007     45.123399999999997     47.445650000000001
H      46.655949999999997     44.856400000000001     47.835649999999987
