31

C      48.683199999999992     47.459499999999991     46.785299999999992
C      47.680499999999995     46.687100000000001     45.993099999999998
C      45.587499999999991     46.861899999999991     50.323300000000003
C      48.298599999999993     47.907399999999996     48.069000000000003
C      46.385499999999993     46.466399999999993     46.518600000000006
C      46.791600000000003     47.674999999999997     50.153900000000007
C      45.364300000000000     46.242199999999997     49.012500000000003
C      47.058899999999994     47.488199999999992     48.819300000000013
C      46.216099999999997     46.708799999999997     47.914500000000004
C      49.755799999999994     48.103699999999989     46.044700000000006
C      50.142700000000005     47.285100000000000     44.846400000000003
C      49.499600000000001     46.000500000000002     44.599100000000007
C      48.112399999999994     46.082099999999997     44.750299999999996
C      51.025199999999998     49.773799999999994     45.499099999999999
C      51.146999999999991     48.028300000000002     44.182000000000002
C      47.423900000000003     48.160699999999991     51.430800000000005
C      45.330900000000000     46.142399999999995     45.499800000000008
H      45.121300000000005     46.052499999999995     51.130800000000008
H      49.251099999999994     48.330900000000000     48.551500000000004
H      44.539699999999996     45.430700000000002     49.063400000000016
H      49.926199999999994     45.347200000000001     43.820499999999996
H      47.389499999999998     45.429899999999989     44.249300000000005
H      51.775700000000001     47.635599999999982     43.373599999999996
H      47.033199999999994     48.233399999999989     52.626400000000004
H      45.543599999999998     45.150199999999998     45.227599999999995
H      45.467100000000002     47.158499999999989     45.046099999999996
H      44.224299999999999     46.130499999999998     45.853499999999997
H      51.331699999999998     50.849800000000002     45.462000000000003
N      50.082099999999997     49.286799999999999     46.273499999999999
N      51.640000000000001     49.237499999999997     44.421800000000005
O      48.442999999999998     48.757999999999996     51.289000000000016
