17

C      46.917199999999994     47.033349999999992     46.443149999999989
C      48.398600000000002     47.059449999999998     46.776249999999997
C      49.028699999999994     47.702649999999991     47.991650000000000
C      48.201400000000000     48.741050000000001     48.480449999999998
C      47.240700000000011     49.404749999999993     47.616750000000003
C      46.509300000000003     48.270349999999993     46.857549999999996
C      48.783099999999997     46.037949999999995     45.961949999999995
C      46.432900000000004     50.185450000000003     48.143149999999999
C      49.921399999999998     47.390549999999990     48.813349999999993
H      46.354800000000004     46.225949999999997     46.110750000000003
H      45.521500000000003     48.368650000000002     46.585149999999992
H      50.602100000000000     46.410950000000000     48.677749999999996
H      48.293200000000006     48.047650000000004     50.748849999999997
H      50.103400000000001     47.807050000000004     49.780650000000001
O      49.308600000000006     45.253050000000002     45.251150000000003
O      45.397900000000000     50.746949999999998     48.410450000000004
O      48.041000000000004     48.750050000000002     49.859450000000002
