5

C      47.938699999999997     47.913549999999994     48.035499999999992
H      47.256800000000005     47.317250000000001     48.608900000000006
H      48.743199999999995     47.360250000000001     47.600499999999997
H      47.343200000000003     48.578550000000007     47.317800000000005
H      48.214700000000001     48.682749999999999     48.682199999999995
