20

C      47.241649999999993     45.899249999999995     49.452149999999996
C      45.910350000000001     48.609549999999999     47.627350000000000
C      47.763650000000005     46.313450000000003     48.212250000000004
C      46.927349999999997     48.363450000000007     46.752350000000000
C      48.781950000000002     47.308850000000000     47.838650000000001
C      48.353050000000003     48.482350000000004     47.189550000000004
C      49.956049999999998     47.719450000000002     48.627749999999999
C      48.961250000000000     49.750650000000000     46.884750000000004
C      50.582249999999995     48.998150000000003     48.479849999999999
C      50.031550000000003     50.046150000000004     47.705449999999999
H      47.734850000000002     45.828450000000004     50.325350000000000
H      46.499649999999995     45.129150000000003     49.491849999999999
H      45.844249999999995     48.741849999999999     48.762050000000002
H      44.812249999999999     48.532750000000000     47.116350000000004
H      46.919050000000006     46.384050000000002     47.492350000000002
H      46.881350000000005     47.972450000000002     45.674650000000000
H      50.510349999999995     47.038050000000005     49.262850000000000
H      48.664549999999998     50.492249999999999     46.274650000000001
H      51.187750000000001     49.472050000000003     49.365549999999999
H      50.632749999999994     50.870849999999997     47.404150000000001
