5

C      48.257599999999996     47.626949999999994     47.857449999999993
H      48.632899999999999     47.220149999999997     48.982749999999996
H      48.839700000000001     47.891250000000007     47.017250000000004
H      47.160299999999999     47.603249999999996     47.461950000000002
H      47.799100000000003     48.779850000000003     48.127349999999993
