43

C      47.168549999999989     49.235499999999995     48.989244999999990
C      46.761349999999993     48.066000000000003     49.668844999999990
C      50.055149999999998     46.519400000000005     45.996144999999999
C      49.239850000000004     45.412900000000000     46.453644999999995
C      47.915049999999994     49.147200000000005     47.650745000000001
C      47.446149999999989     46.868600000000001     49.159345000000002
C      49.667149999999992     47.804800000000000     46.426944999999996
C      48.790049999999994     45.332300000000004     47.878545000000003
C      48.611750000000001     47.908900000000003     47.341245000000001
C      48.119749999999996     46.724800000000002     48.146744999999996
C      46.803849999999997     50.543900000000008     49.407044999999997
C      46.051749999999998     50.567800000000005     50.623445000000004
C      45.661049999999996     49.433700000000002     51.262945000000002
C      45.985050000000001     48.044200000000004     50.917344999999997
C      50.818249999999992     46.408600000000000     44.721344999999999
C      50.743650000000002     45.075000000000003     44.057564999999997
C      49.555750000000003     44.287200000000006     44.239165000000000
C      49.148049999999998     44.264300000000006     45.592444999999998
C      47.786850000000001     50.307000000000002     46.814644999999999
C      47.418549999999996     51.653999999999996     47.377245000000002
C      47.014749999999992     51.740099999999998     48.666844999999995
C      51.271749999999997     47.648000000000003     43.908394999999999
C      44.645049999999998     49.191500000000005     52.323944999999995
C      48.737349999999992     44.303400000000003     48.834944999999998
H      52.348050000000001     47.127600000000001     43.970754999999997
H      50.103149999999999     48.776200000000003     45.833745000000000
H      45.674650000000000     51.558999999999997     50.943645000000004
H      45.728949999999998     46.743800000000000     51.404044999999996
H      51.748149999999995     44.976200000000006     43.473534999999998
H      49.381450000000001     43.348800000000004     43.883964999999996
H      48.849149999999995     43.436900000000001     46.182944999999997
H      48.341849999999994     50.499600000000001     45.881245000000000
H      47.846249999999998     52.642000000000010     47.077644999999997
H      46.822449999999996     52.674599999999998     49.148145000000000
H      51.337149999999994     47.723300000000002     42.786155000000001
H      51.288049999999998     48.569500000000005     44.372945000000001
H      44.399749999999997     48.181200000000004     52.945644999999999
H      43.651949999999999     49.544100000000000     52.677144999999996
H      45.375450000000001     49.528400000000005     53.213844999999999
H      49.175349999999995     43.325400000000002     48.818444999999997
H      48.350049999999996     44.592600000000004     49.868645000000001
H      46.848349999999996     45.072500000000005     49.541345000000007
O      46.586950000000002     45.842300000000002     49.900545000000001
