22

C      50.188949999999991     48.333849999999998     49.578369999999993
C      46.749650000000003     50.362650000000009     46.746309999999994
C      48.727850000000004     48.269449999999999     49.214869999999991
C      47.814650000000000     49.661350000000006     47.117779999999996
C      48.133449999999996     47.410450000000004     48.226209999999995
C      47.577050000000000     48.168849999999999     47.055979999999991
C      47.821349999999995     46.099750000000000     48.257030000000000
C      46.814049999999995     47.586449999999999     46.086079999999995
C      47.233850000000004     45.618250000000003     47.006580000000000
C      46.094449999999995     46.373049999999999     46.403909999999996
H      49.924549999999996     48.359450000000002     50.923259999999999
H      50.605750000000000     49.076050000000002     48.838089999999994
H      45.720450000000000     49.972250000000010     46.295819999999992
H      47.006050000000002     51.393049999999995     46.502979999999994
H      48.137550000000005     48.103550000000006     50.563639999999992
H      48.305450000000008     49.151550000000007     49.124820000000000
H      48.714950000000002     50.106349999999999     47.720770000000002
H      50.821250000000006     47.320250000000001     49.676130000000001
H      48.143550000000005     45.341850000000001     49.197099999999992
H      46.648150000000001     48.193150000000003     45.076740000000001
H      47.392350000000008     44.606950000000005     46.963780000000000
H      45.178749999999994     46.097650000000002     45.991900000000001
