6

C      47.799499999999995     48.516150000000003     48.351899999999993
C      48.138799999999996     47.651150000000001     47.337299999999999
H      46.747599999999998     48.848050000000001     48.348299999999995
H      48.492700000000006     48.723050000000001     49.282100000000000
H      47.429899999999996     47.151949999999999     46.717900000000000
H      49.252400000000002     47.367950000000008     47.415099999999995
