22

C      49.386999999999993     46.244249999999994     49.365949999999991
C      48.134200000000000     46.574950000000008     50.370950000000008
C      48.833799999999997     45.862150000000007     47.903050000000000
C      47.287399999999998     47.752550000000006     49.874350000000007
C      48.408699999999996     47.250350000000005     47.521349999999998
C      47.405200000000001     47.961850000000005     48.352850000000004
C      48.324199999999998     47.566250000000004     46.091349999999998
C      46.627399999999994     49.002950000000006     47.772750000000002
C      47.854299999999995     48.847650000000009     45.619149999999998
C      47.108799999999995     49.628150000000012     46.568550000000002
H      50.045500000000004     47.119350000000004     49.414749999999998
H      50.093000000000004     45.462949999999999     49.831149999999994
H      47.460400000000000     45.731750000000005     50.392250000000004
H      48.532499999999999     46.777250000000002     51.375349999999997
H      49.592999999999996     45.310549999999999     47.203749999999999
H      47.775799999999997     45.430450000000000     48.032350000000001
H      47.507799999999996     48.689350000000012     50.346550000000008
H      46.261899999999997     47.754150000000003     50.353949999999998
H      48.364100000000001     46.919950000000007     45.203150000000001
H      45.906999999999996     49.756150000000005     48.329050000000002
H      47.792999999999999     49.307549999999999     44.624650000000003
H      46.875099999999996     50.689450000000001     46.118050000000004
