33

C      48.225800000000000     46.445649999999986     47.509599999999999
C      49.212199999999996     47.230049999999999     46.665999999999997
C      46.557500000000005     51.019749999999995     48.513900000000007
C      47.290899999999993     51.660249999999998     47.312899999999999
C      47.233199999999997     47.218249999999991     48.210099999999997
C      48.998099999999994     48.493749999999999     46.313299999999998
C      46.486800000000002     49.686050000000002     48.750699999999995
C      47.965699999999998     50.696649999999998     46.633200000000002
C      47.070200000000000     48.706349999999993     47.989900000000006
C      47.854399999999998     49.257749999999994     46.763999999999996
C      48.556700000000006     45.145949999999992     47.917800000000000
C      49.864699999999999     44.698149999999991     47.655400000000000
C      50.735399999999998     45.262849999999993     46.556700000000006
C      50.485600000000005     46.543550000000003     46.331900000000005
C      46.594800000000006     46.255350000000000     49.110500000000002
C      46.819800000000001     45.057849999999995     49.683300000000003
C      47.902500000000003     44.245249999999992     49.231700000000004
C      45.369600000000005     49.435949999999998     49.781700000000001
H      45.863500000000002     51.645049999999991     49.105900000000005
H      47.337500000000006     52.705350000000003     47.200599999999994
H      48.339600000000004     50.985149999999997     45.649900000000002
H      50.585400000000007     43.900349999999996     48.190700000000007
H      51.576999999999998     44.840749999999993     46.070499999999996
H      51.309700000000007     46.922350000000002     45.707800000000006
H      45.256799999999998     50.396049999999995     50.257599999999996
H      45.699500000000000     46.768149999999999     49.348100000000002
H      46.094700000000003     44.448249999999994     50.224500000000006
H      48.841099999999997     44.258149999999993     49.919799999999995
H      47.467100000000002     43.294649999999997     49.047499999999999
H      50.589299999999994     49.625650000000000     45.966800000000006
H      45.657200000000003     48.527549999999998     50.387400000000000
H      44.423000000000002     49.396749999999990     49.177800000000005
O      49.880600000000001     49.327449999999992     45.612600000000000
