42

C      50.471049999999991     44.553549999999994     43.512974999999997
C      47.612050000000004     47.366849999999999     48.567044999999993
C      48.102049999999998     46.007950000000001     48.995395000000002
C      49.340849999999996     45.272550000000010     44.314994999999996
C      47.408650000000002     47.720749999999995     47.201844999999992
C      48.335650000000001     45.351450000000000     47.792304999999999
C      46.688849999999995     46.756950000000003     44.802234999999996
C      47.437049999999999     46.731549999999999     46.142574999999994
C      48.308749999999996     45.747750000000011     46.404285000000002
C      47.364950000000000     48.276150000000001     49.698165000000003
C      47.896650000000001     47.909149999999997     51.086764999999986
C      48.433850000000000     46.598249999999993     51.295064999999994
C      48.357549999999996     45.538250000000005     50.270465000000002
C      46.645249999999997     49.469250000000002     49.433474999999987
C      46.835749999999997     50.610249999999994     50.420964999999995
C      47.706150000000001     50.466149999999999     51.549965000000000
C      48.213050000000003     49.147149999999996     51.878164999999996
C      46.126750000000001     49.545850000000002     48.058414999999997
C      45.633649999999996     51.584850000000003     50.442864999999998
C      46.902449999999995     49.686549999999997     45.694374999999994
H      51.558349999999997     44.510350000000003     43.947064999999995
H      50.828650000000003     45.092750000000009     42.726235000000003
H      49.914650000000002     43.598450000000000     43.058954999999997
H      46.508050000000004     45.624749999999992     44.357005000000001
H      48.604649999999999     45.931749999999994     43.715874999999997
H      47.122450000000001     46.733649999999997     43.699264999999997
H      49.163049999999998     46.364649999999997     51.962265000000002
H      48.510249999999999     44.436349999999997     50.476864999999989
H      47.690350000000002     49.294550000000001     53.005564999999990
H      45.488149999999997     48.777249999999995     47.997954999999990
H      45.768450000000001     50.402850000000001     47.738714999999985
H      45.948749999999997     52.401550000000000     51.174064999999985
H      46.282649999999997     50.548349999999999     45.733485000000002
H      48.347650000000002     51.347149999999999     53.273764999999997
H      45.577350000000003     47.201149999999998     44.807585000000003
H      48.855350000000001     43.702750000000002     48.871264999999994
N      49.247549999999997     45.161650000000002     45.616545000000002
N      47.093250000000005     49.055549999999997     46.888584999999992
O      44.441650000000003     51.375349999999997     50.315764999999999
O      47.194150000000000     49.331249999999997     44.581654999999998
O      47.771450000000002     51.509950000000003     52.405265000000000
O      49.114849999999997     44.282150000000001     48.139704999999992
