26

C      45.681899999999992     46.428900000000006     48.069699999999997
C      45.785499999999999     46.809900000000013     46.584100000000007
C      48.508799999999994     46.056500000000000     47.545699999999997
C      46.626999999999995     47.798400000000001     46.391900000000007
C      48.299899999999994     47.486900000000006     48.217399999999998
C      47.492599999999996     48.377800000000008     47.509600000000006
C      49.141300000000001     48.008600000000001     49.307500000000005
C      46.966399999999993     49.550500000000000     48.234600000000000
C      48.775800000000004     49.044900000000013     50.013499999999993
C      47.749200000000002     49.843500000000006     49.417599999999993
C      50.810999999999993     47.268900000000002     47.102500000000006
C      49.793999999999997     45.938800000000001     47.269199999999998
H      45.705900000000000     45.347200000000001     48.209100000000007
H      46.396400000000000     47.102700000000013     48.645499999999998
H      45.136499999999998     46.348100000000002     45.844999999999999
H      44.622100000000003     46.346400000000003     48.256600000000006
H      47.660600000000002     45.340900000000005     47.440200000000004
H      46.753299999999996     48.288600000000002     45.400000000000006
H      50.033000000000001     47.635600000000011     49.792900000000003
H      45.974400000000003     49.809600000000003     48.117599999999996
H      49.699399999999997     49.353100000000012     50.599999999999994
H      47.466899999999995     50.939200000000000     49.736999999999995
H      51.311300000000003     47.191900000000004     46.059399999999997
H      51.377899999999997     47.695500000000010     48.022599999999997
H      50.204300000000003     48.257100000000008     46.834800000000001
H      50.462900000000005     45.060800000000000     46.995800000000003
