5

C      48.218149999999994     47.994050000000001     48.238399999999992
H      48.567749999999997     48.252249999999989     47.119799999999998
H      48.787550000000003     47.213450000000009     48.862799999999993
H      48.131850000000000     48.786549999999991     48.880200000000002
H      47.212449999999997     47.808450000000008     47.852300000000000
