22

C      45.800199999999982     49.855249999999991     49.383549999999993
C      46.391999999999996     45.864449999999998     48.214749999999995
C      47.122900000000001     49.857950000000002     49.311049999999994
C      46.235399999999998     47.446749999999994     47.866249999999994
C      47.787099999999995     49.261449999999996     48.148649999999996
C      47.644999999999996     48.013649999999998     47.498149999999995
C      49.078699999999998     49.874150000000000     47.996650000000002
C      48.469600000000000     47.463250000000002     46.520249999999997
C      50.057499999999990     49.353949999999998     47.099549999999994
C      49.740899999999996     48.192949999999996     46.420349999999999
H      45.998599999999996     48.071849999999998     48.699449999999999
H      45.229599999999991     49.366050000000001     48.575350000000000
H      45.130099999999999     50.106650000000002     50.089449999999999
H      46.497000000000000     45.932249999999996     49.292249999999996
H      45.495399999999989     45.166950000000000     47.861449999999998
H      47.411000000000001     45.572449999999996     48.000050000000002
H      47.827900000000000     50.308250000000001     49.835049999999995
H      45.667699999999996     47.507049999999992     46.907449999999997
H      49.161400000000000     50.833050000000000     48.464249999999993
H      48.063099999999991     46.572449999999996     46.045050000000003
H      50.869900000000001     49.975449999999995     47.034549999999996
H      50.594099999999997     47.796650000000000     45.910550000000001
