22

C      47.239599999999989     48.137499999999989     50.518149999999991
C      47.665800000000004     49.512400000000000     49.886550000000000
C      48.357100000000003     47.015799999999999     49.593450000000004
C      48.137100000000004     49.992500000000007     48.516649999999998
C      48.705100000000002     47.275100000000009     48.151150000000001
C      48.470100000000002     48.694200000000009     47.681350000000009
C      49.534400000000005     46.301299999999998     47.474850000000004
C      48.665599999999998     48.598500000000016     46.282849999999996
C      49.332800000000006     46.252800000000008     46.054950000000005
C      48.970299999999995     47.418400000000005     45.506650000000008
H      47.270099999999999     48.198400000000007     51.544650000000004
H      46.261700000000005     47.849800000000002     50.194350000000000
H      46.682800000000000     49.861200000000011     50.003550000000004
H      48.675700000000006     49.884600000000006     50.405850000000001
H      47.884000000000000     45.932600000000008     49.551450000000003
H      48.938199999999995     46.495500000000007     50.360750000000010
H      47.141500000000008     50.480900000000005     48.466450000000009
H      48.402299999999997     51.052300000000002     48.357450000000000
H      49.284999999999997     44.947699999999998     47.579949999999997
H      48.225499999999997     49.186400000000006     45.475149999999999
H      49.738299999999995     45.473200000000006     45.564350000000005
H      49.301500000000004     47.699100000000001     44.455349999999996
