19

C      48.564849999999993     50.429099999999991     49.367149999999995
C      47.358449999999998     46.186700000000002     49.823650000000001
C      48.031050000000000     49.150099999999995     49.435649999999995
C      48.202649999999998     46.784300000000002     48.669150000000002
C      48.555450000000000     48.098799999999997     48.500349999999997
C      48.363149999999997     45.659199999999998     47.836650000000006
C      48.915150000000004     48.535600000000002     47.143950000000004
C      48.811650000000007     46.173100000000005     46.577449999999999
C      48.822049999999997     47.548699999999997     46.158650000000009
H      47.944550000000000     51.265600000000006     49.956249999999997
H      49.635449999999999     50.665999999999997     48.951450000000008
H      47.440649999999998     44.974400000000003     49.892749999999992
H      46.364550000000001     46.653400000000005     49.788150000000002
H      46.915450000000000     49.162099999999995     49.829450000000008
H      47.455249999999999     46.366200000000006     50.926649999999995
H      47.991650000000000     44.734399999999994     48.043450000000007
H      49.395150000000008     49.608999999999995     47.133449999999996
H      49.456350000000008     45.434100000000001     46.106250000000003
H      49.134250000000002     47.943600000000004     45.073350000000005
