51

C      47.532249999999991     51.565049999999985     44.750477999999987
C      47.533550000000005     47.871650000000002     47.965609999999998
C      47.478949999999998     46.831149999999994     46.885649999999991
C      47.155349999999999     50.686849999999993     43.759020000000000
C      47.186549999999997     49.238349999999997     47.691750000000006
C      47.145049999999998     47.338250000000002     45.529879999999999
C      47.461449999999999     51.068650000000005     46.101119999999987
C      46.997550000000004     49.258749999999992     43.866120000000016
C      47.244650000000007     49.675049999999999     46.343929999999993
C      47.076350000000005     48.768950000000004     45.200729999999993
C      47.936650000000014     47.537750000000003     49.356029999999997
C      48.081750000000014     46.039349999999999     49.546389999999995
C      48.059049999999999     45.109250000000003     48.565069999999999
C      47.749250000000004     45.446550000000002     47.207239999999992
C      47.454250000000002     48.434049999999999     50.374869999999994
C      47.061450000000008     47.740049999999997     51.563899999999997
C      47.663150000000002     46.524950000000004     51.821409999999993
C      48.205650000000006     45.605649999999997     50.924339999999994
C      47.057850000000002     49.840050000000005     50.101220000000005
C      47.153050000000007     50.323149999999998     48.754309999999997
C      47.201850000000007     51.713250000000002     48.428480000000000
C      47.275350000000003     52.140950000000004     47.073979999999999
C      46.828050000000005     46.518249999999995     44.546258999999999
C      46.981250000000003     45.125349999999997     44.730289999999997
C      47.937850000000012     44.696749999999994     45.846509999999995
C      48.293250000000000     43.769649999999999     49.137549999999997
C      49.442549999999997     43.902649999999994     50.193419999999996
C      48.791449999999998     44.329650000000001     51.465499999999999
C      46.710149999999999     50.718850000000003     51.302029999999995
H      47.107250000000008     50.901250000000005     42.578920000000004
H      48.000750000000011     52.554149999999993     44.601327999999995
H      46.573149999999998     48.561449999999994     43.057719999999996
H      47.360150000000004     53.189350000000005     46.937159999999999
H      46.662750000000003     52.411050000000003     49.135289999999998
H      46.579850000000008     46.965850000000003     43.684919999999991
H      46.231949999999998     44.333449999999999     44.274244999999993
H      48.992250000000013     44.651150000000001     45.394879999999993
H      47.783050000000003     43.587649999999996     46.037089999999999
H      48.705150000000003     43.159949999999995     48.316769999999998
H      47.470550000000003     43.286950000000004     49.728089999999987
H      50.129549999999995     44.662750000000003     50.047909999999995
H      49.873750000000001     42.810649999999995     50.156289999999998
H      47.692049999999995     43.793149999999997     51.712650000000004
H      47.693250000000006     45.355149999999995     53.263619999999996
H      47.247650000000007     48.307850000000002     53.421079999999996
H      46.309950000000001     51.647850000000005     50.860710000000005
H      45.870450000000005     50.440049999999999     51.883400000000002
H      47.434550000000002     50.784449999999993     52.335049999999995
H      49.605350000000001     44.728549999999998     52.383839999999999
O      47.610250000000008     46.285150000000002     53.234879999999997
O      46.840050000000005     48.616649999999993     52.612349999999999
