5

C      48.315599999999989     48.113099999999989     48.073399999999992
H      48.757200000000005     48.747700000000009     47.207000000000001
H      47.242799999999995     47.822800000000001     47.786600000000000
H      48.677999999999990     47.159599999999998     48.221699999999998
H      48.403499999999994     48.840400000000002     48.792999999999999
