63

C      47.419385000000005     51.579099999999997     48.432599999999994
C      45.309863500000006     47.665700000000001     46.238000000000000
C      49.766705000000002     47.341400000000000     48.257799999999989
C      46.277275000000003     51.092100000000002     47.611999999999995
C      48.649074999999996     50.959700000000005     48.428399999999996
C      45.435365000000004     49.170099999999998     46.292899999999989
C      49.817585000000008     48.714100000000002     48.250399999999999
C      46.371265000000008     46.786400000000000     46.564200000000000
C      48.828225000000003     46.669500000000006     47.405499999999989
C      46.414335000000008     49.727300000000007     47.294699999999992
C      48.648704999999993     49.403700000000001     48.069999999999993
C      47.583605000000006     47.400500000000001     47.056399999999996
C      47.508304999999993     48.766500000000001     47.714599999999990
C      47.099535000000003     53.051400000000001     48.594799999999992
C      46.078598000000000     53.890500000000010     48.112600000000000
C      45.101395000000011     53.449000000000005     47.315299999999993
C      45.426306000000011     51.984600000000007     46.862200000000001
C      44.727195000000037     51.468400000000003     45.721800000000002
C      44.789595000000006     50.100299999999997     45.399000000000001
C      49.519885000000002     51.552300000000002     49.447899999999990
C      49.392435000000006     52.941200000000002     49.487799999999993
C      48.266745000000000     53.685900000000004     48.983499999999992
C      44.190795000000008     46.983600000000003     45.510999999999996
C      44.526494999999983     45.745100000000001     44.905799999999999
C      44.507795000000030     44.435499999999998     44.310099999999991
C      46.648845000000009     45.295300000000005     46.443999999999988
C      50.580474999999993     46.309300000000000     48.917699999999996
C      51.352265000000003     45.390800000000006     47.991399999999999
C      49.869915000000006     44.327400000000004     51.138899999999992
C      51.366215000000011     44.090000000000003     48.804400000000001
C      50.469264999999993     43.692200000000007     49.889499999999998
C      52.175215000000009     42.939200000000007     48.353600000000000
C      49.810095000000004     42.443000000000005     49.590199999999996
C      51.993515000000002     41.735400000000006     48.804800000000000
C      50.671064999999999     41.243699999999997     49.320599999999999
H      51.042815000000004     48.846800000000002     48.390799999999999
H      48.965225000000004     45.618400000000001     47.376399999999990
H      44.346195000000009     52.082000000000001     44.945299999999989
H      44.365295000000003     49.724800000000002     44.418799999999990
H      43.134694999999994     47.481900000000003     45.644999999999996
H      49.975245000000001     53.567500000000003     50.032199999999989
H      50.516514999999998     51.211600000000004     49.897399999999990
H      48.470844999999997     54.700400000000002     48.680499999999995
H      45.760988000000012     44.702100000000002     46.207299999999989
H      45.471741000000009     43.770200000000003     44.157600000000002
H      47.665845000000004     45.190700000000000     45.685099999999991
H      47.416295000000005     44.837000000000003     47.398699999999991
H      46.843655000000012     55.821199999999997     47.924799999999991
H      44.273695000000018     54.945799999999998     46.697099999999992
H      51.076594999999998     46.863500000000002     49.697099999999992
H      50.114445000000003     45.736400000000003     49.724999999999994
H      50.453855000000004     45.285800000000002     51.210099999999997
H      50.028355000000005     43.629700000000007     52.075299999999999
H      43.328295000000011     44.300500000000007     43.924700000000001
H      51.027565000000010     45.314799999999998     46.874200000000002
H      52.288595000000001     45.825400000000002     48.268999999999991
H      49.014845000000008     44.807499999999997     51.394199999999998
H      52.865305000000006     43.450800000000001     47.777899999999988
H      48.788335000000004     42.269700000000000     49.805799999999991
H      52.719305000000006     41.030500000000004     48.358399999999989
H      50.714265000000012     40.178800000000003     49.864799999999988
O      46.165396999999999     55.246300000000005     48.323200000000000
O      44.046695000000000     53.993800000000000     46.728299999999990
