6

C      47.465999999999994     48.362949999999991     47.706849999999996
C      48.517500000000005     47.582549999999998     48.084750000000000
H      46.428300000000000     47.989149999999995     47.967650000000006
H      47.373000000000012     49.512450000000001     47.877350000000007
H      49.571700000000000     47.987049999999996     48.233750000000001
H      48.280700000000003     46.487549999999999     48.293150000000004
