6

C      48.102199999999996     47.196949999999994     47.924499999999988
C      47.500300000000003     48.389750000000006     47.534999999999997
H      47.692399999999999     46.683049999999994     48.721800000000002
H      49.250999999999998     46.891349999999996     47.891999999999996
H      48.033999999999999     49.316950000000006     47.278199999999998
H      46.749000000000002     48.432350000000000     48.206600000000002
