22

C      48.725899999999996     45.682049999999997     47.192299999999996
C      48.646500000000003     45.566050000000004     48.822400000000002
C      48.659700000000001     47.077650000000006     46.561899999999994
C      47.153200000000005     46.241349999999997     48.826499999999996
C      48.079700000000003     48.074449999999999     47.555999999999997
C      47.542100000000005     47.679749999999999     48.797399999999996
C      48.220700000000001     49.406250000000000     47.131399999999999
C      46.941099999999999     48.545850000000002     49.710700000000003
C      47.741300000000003     50.404250000000005     48.113500000000002
C      46.979100000000003     49.789150000000006     49.086799999999997
H      47.998300000000000     44.999150000000000     46.615300000000005
H      49.524799999999992     45.199349999999995     46.592100000000002
H      48.951700000000010     44.672550000000001     48.878000000000000
H      49.517299999999999     46.225650000000002     49.076300000000003
H      49.791699999999999     47.734150000000000     45.796199999999999
H      48.271700000000003     47.118750000000006     45.480000000000004
H      46.446000000000005     45.811850000000007     47.933800000000005
H      46.782299999999999     45.862849999999995     49.852699999999999
H      48.797000000000004     49.666650000000004     46.290599999999998
H      46.208300000000001     48.422150000000002     50.519999999999996
H      48.111499999999999     51.327449999999999     48.129400000000004
H      46.601600000000005     50.651350000000008     49.572199999999995
