34

C      47.000449999999987     46.650199999999991     50.184784999999998
C      48.421249999999993     46.522700000000000     49.899585000000002
C      46.707150000000006     47.975899999999996     45.775035000000003
C      45.957950000000004     47.338200000000001     49.501485000000002
C      48.864250000000006     47.434199999999997     48.848685000000003
C      45.779450000000004     47.823099999999997     46.810685000000007
C      47.950849999999996     47.990800000000007     46.481025000000002
C      46.390149999999998     47.489900000000006     48.152645000000000
C      47.741350000000004     47.633700000000005     47.923214999999999
C      50.117150000000002     48.152900000000002     48.883985000000003
C      50.961750000000002     48.488699999999994     50.057085000000001
C      51.228850000000001     50.031700000000001     50.367284999999995
C      49.072650000000003     47.340800000000002     45.651955000000001
C      44.283549999999998     48.067399999999999     46.513195000000003
C      44.508850000000002     47.595900000000000     49.824385000000007
H      43.969349999999999     46.898299999999992     46.125865000000005
H      46.638849999999998     46.130699999999997     51.024784999999994
H      46.668450000000000     48.408999999999999     44.717714999999998
H      50.584349999999993     47.878699999999995     50.815484999999995
H      51.963649999999994     48.005200000000002     50.078485000000001
H      50.012850000000007     45.461599999999997     50.543685000000004
H      52.210249999999995     50.179199999999994     50.034985000000006
H      50.604350000000004     50.043799999999997     51.282285000000002
H      50.367250000000006     50.565899999999999     49.704085000000006
H      50.219550000000005     47.143699999999995     46.213374999999999
H      48.653749999999995     46.359299999999998     45.144265000000004
H      49.438350000000007     47.884799999999998     44.794364999999999
H      43.846750000000007     48.283299999999997     47.425494999999998
H      44.064249999999994     48.565799999999996     50.136985000000003
H      44.107549999999996     47.769999999999996     48.796885000000003
H      43.789750000000005     48.687100000000001     45.755795000000006
H      44.144050000000000     46.898200000000003     50.573485000000005
O      50.390250000000002     48.456599999999995     47.748615000000001
O      49.046249999999993     45.434100000000001     50.422885000000001
