26

C      46.213299999999990     47.851389999999995     50.561449999999994
C      47.955800000000011     48.260460000000002     50.244249999999994
C      48.507800000000003     46.749210000000005     50.177650000000000
C      49.980199999999996     46.819430000000004     50.715749999999986
C      48.184700000000007     46.366720000000001     48.774549999999991
C      47.720500000000001     46.634190000000004     45.713749999999990
C      47.927800000000005     47.354900000000001     47.899149999999992
C      47.666900000000012     47.601900000000001     46.515450000000001
C      48.083399999999997     48.636810000000004     48.817849999999993
C      47.907899999999998     48.934400000000004     46.108849999999990
C      48.569700000000012     49.855089999999997     48.256549999999990
C      48.789599999999993     49.844850000000001     46.915750000000003
H      50.414299999999997     45.991210000000002     51.212249999999997
H      45.962199999999996     47.185580000000002     49.715649999999997
H      46.030000000000001     46.937450000000005     51.217249999999993
H      45.527799999999999     48.800180000000005     50.647250000000000
H      48.099299999999999     46.089210000000001     50.910150000000002
H      50.035899999999998     47.843630000000005     51.289349999999999
H      50.472200000000001     46.630120000000005     49.697249999999997
H      48.301699999999997     45.218280000000000     48.723749999999995
H      47.411500000000004     46.853020000000001     44.710650000000001
H      48.033100000000005     45.697080000000000     46.201149999999998
H      48.495699999999999     48.751040000000003     51.003050000000002
H      48.043599999999998     48.974820000000001     45.081350000000000
H      48.784000000000006     50.682020000000001     48.802049999999994
H      49.347700000000003     50.781720000000000     46.580249999999992
